geometry optimzed in LAMMPS
_audit_creation_date              2020-11-30 
_audit_creation_method            'lammps2cif' 
_symmetry_space_group_name_H-M    'P1' 
_symmetry_Int_Tables_number       1 
_symmetry_cell_setting            triclinic 
loop_ 
_symmetry_equiv_pos_as_xyz 
  x,y,z 
_cell_length_a                    42.43263177 
_cell_length_b                    40.752732519764464 
_cell_length_c                    40.1987978161361 
_cell_angle_alpha                 90.2016391366471 
_cell_angle_beta                  91.27430159703631 
_cell_angle_gamma                 89.92143772736145 
loop_ 
_atom_site_label 
_atom_site_type_symbol 
_atom_site_fract_x 
_atom_site_fract_y 
_atom_site_fract_z 
_atom_site_charge 
O1          O  0.08201533  0.21566888  0.04542464    -0.80600
O2          O  0.07713638  0.28304076  0.46086852    -0.80700
O3          O  0.11908148  0.29422165  0.06972485    -0.80700
O4          O  0.11828375  0.21291423  0.43788682    -0.80600
O5          O  0.07788254  0.29188303  0.03504627    -0.80700
O6          O  0.07796127  0.20561727  0.47039103    -0.80700
O7          O  0.11784105  0.27474824  0.42834129    -0.80600
O8          O  0.12271485  0.23130338  0.07691715    -0.80700
C9          C  0.09522260  0.21906281  0.07391836     1.09100
C10         C  0.08891076  0.28167314  0.43179260     1.08900
C11         C  0.08949302  0.29680715  0.06433325     1.09100
C12         C  0.09051995  0.20273869  0.44212561     1.09000
O13         O  0.13444043  0.18017655  0.48666198    -0.80600
O14         O  0.13459244  0.32892062  0.02635825    -0.80700
O15         O  0.17933550  0.22471465  0.04132583    -0.80700
O16         O  0.17629098  0.28514394  0.46327910    -0.80600
O17         O  0.13471993  0.31850668  0.46185187    -0.80700
O18         O  0.13929421  0.18936216  0.03648248    -0.81800
O19         O  0.17516717  0.21151689  0.47335250    -0.80600
O20         O  0.17709422  0.29810643  0.03307608    -0.80700
Co21       Co  0.10995793  0.21538932  0.00731422     1.51500
Co22       Co  0.10593283  0.30216659  0.49618433     1.51700
Co23       Co  0.14950142  0.26199236  0.05032638     1.51600
Co24       Co  0.14705855  0.24745080  0.45563368     1.51500
O25         O  0.12881292  0.25825546  0.00250320    -1.42600
C26         C  0.16250218  0.18284637  0.47600993     1.09000
C27         C  0.16427119  0.32654887  0.03084955     1.09100
C28         C  0.16778394  0.19585132  0.04528051     1.09000
C29         C  0.16406171  0.31353110  0.45834474     1.09000
O30         O  0.37182488  0.23555968  0.07123672    -0.80600
O31         O  0.38928768  0.28158965  0.42838451    -0.80700
O32         O  0.42893756  0.20515138  0.47027473    -0.80700
O33         O  0.41361000  0.29549953  0.02986402    -0.80600
O34         O  0.39310799  0.21624436  0.43073982    -0.80700
O35         O  0.37684737  0.27382214  0.06341059    -0.80700
O36         O  0.42069145  0.31437701  0.46022592    -0.80600
O37         O  0.41351825  0.21068556  0.04807344    -0.80700
C38         C  0.39743856  0.21801849  0.07349682     1.09100
C39         C  0.41093521  0.30390447  0.43174960     1.08900
C40         C  0.42012585  0.20558205  0.43977622     1.09100
C41         C  0.40282852  0.29002517  0.05888602     1.09000
O42         O  0.34256270  0.30094522  0.04222354    -0.80600
O43         O  0.33124052  0.20731206  0.45491446    -0.80700
O44         O  0.37208008  0.17470534  0.02753976    -0.80700
O45         O  0.35799064  0.31505667  0.46931326    -0.80600
O46         O  0.32380265  0.27819278  0.45003358    -0.80700
O47         O  0.32893432  0.20470778  0.03327110    -0.80600
O48         O  0.36971399  0.32435940  0.00203501    -0.80600
O49         O  0.37191629  0.17751151  0.47376159    -0.80700
Co50       Co  0.34126384  0.25275299  0.03446893     1.51500
Co51       Co  0.35857213  0.24598320  0.44531913     1.51700
Co52       Co  0.39388808  0.20971309  0.00353550     1.51600
Co53       Co  0.39523559  0.28564189  0.48440340     1.51500
O54         O  0.37001773  0.24957100  0.99576712    -1.42600
C55         C  0.35279248  0.32651270  0.02815521     1.09000
C56         C  0.34509672  0.17972094  0.45944802     1.09100
C57         C  0.34344231  0.17723840  0.03531531     1.09000
C58         C  0.33135755  0.30793375  0.45523575     1.09000
O59         O  0.21255571  0.03154983  0.18048560    -0.80600
O60         O  0.27347350  0.45937861  0.17799473    -0.80700
O61         O  0.18026664  0.46523173  0.12100958    -0.80700
O62         O  0.31556697  0.02723773  0.13138978    -0.80600
O63         O  0.20919924  0.45549905  0.16575391    -0.80700
O64         O  0.28657844  0.03315478  0.17667188    -0.80700
O65         O  0.30907071  0.47326503  0.14352409    -0.80600
O66         O  0.17895987  0.02709820  0.13662251    -0.80700
C67         C  0.18410173  0.03124136  0.16784587     1.09100
C68         C  0.30196014  0.46144050  0.17110017     1.08900
C69         C  0.18277675  0.45411602  0.15045326     1.09100
C70         C  0.31352451  0.03471126  0.16207737     1.09000
O71         O  0.27572548  0.06833878  0.11778553    -0.80600
O72         O  0.22307611  0.43481144  0.09893180    -0.80700
O73         O  0.21411413  0.04526276  0.07726087    -0.80700
O74         O  0.31575477  0.47603263  0.07886057    -0.80600
O75         O  0.28284146  0.44150782  0.10432267    -0.80700
O76         O  0.21423545  0.07148434  0.12485669    -0.80600
O77         O  0.27767637  0.03476613  0.07404417    -0.80600
O78         O  0.21953776  0.47601610  0.06383933    -0.80700
Co79       Co  0.24725950  0.04692872  0.15020386     1.51500
Co80       Co  0.24695159  0.45234870  0.13756115     1.51700
Co81       Co  0.20197153  0.00366994  0.10033174     1.51600
Co82       Co  0.28604003  0.99834177  0.10595632     1.51500
O83         O  0.24430162  0.00219477  0.12652956    -1.42600
C84         C  0.28100399  0.06340571  0.08703931     1.09000
C85         C  0.22031017  0.44528620  0.06953117     1.09100
C86         C  0.21021402  0.07159747  0.09363093     1.09000
C87         C  0.30582352  0.44675589  0.08412614     1.09000
O88         O  0.18270229  0.02780873  0.37015668    -0.80600
O89         O  0.31579717  0.48205115  0.36466047    -0.80700
O90         O  0.28334875  0.04489616  0.32616589    -0.80700
O91         O  0.20596934  0.46153008  0.32264773    -0.80600
O92         O  0.31650194  0.02116679  0.36193945    -0.80700
O93         O  0.17946940  0.47520287  0.36849845    -0.80700
O94         O  0.28699720  0.45862457  0.32282269    -0.80600
O95         O  0.21354767  0.04498445  0.32926159    -0.80700
C96         C  0.18603562  0.03936612  0.34109696     1.09100
C97         C  0.31374052  0.46473633  0.33746006     1.08900
C98         C  0.31146941  0.03822090  0.33551159     1.09100
C99         C  0.17980519  0.46454865  0.33840788     1.09000
O100        O  0.21343087  0.45851944  0.42060441    -0.80600
O101        O  0.31635900  0.02492232  0.42594006    -0.80700
O102        O  0.22171853  0.06941707  0.39411140    -0.80700
O103        O  0.27227070  0.42834695  0.37325323    -0.80600
O104        O  0.29213474  0.45806435  0.41576571    -0.80700
O105        O  0.20945534  0.03286894  0.43203714    -0.80600
O106        O  0.22590957  0.42862487  0.37615922    -0.80600
O107        O  0.28480885  0.06078297  0.39725289    -0.80700
Co108      Co  0.21196518  0.99980379  0.39547277     1.51500
Co109      Co  0.28630001  0.00461193  0.39775700     1.51700
Co110      Co  0.25084377  0.05139592  0.36073569     1.51600
Co111      Co  0.24764218  0.46209003  0.34855530     1.51500
O112        O  0.24973473  0.00316285  0.37168536    -1.42600
C113        C  0.21614713  0.43088389  0.40590039     1.09000
C114        C  0.30624018  0.05416284  0.41987605     1.09100
C115        C  0.21229416  0.06262860  0.42294654     1.09000
C116        C  0.28718271  0.43034553  0.40106311     1.09000
O117        O  0.04366858  0.17096861  0.22079630    -0.80600
O118        O  0.45987482  0.15841963  0.29259878    -0.80700
O119        O  0.46283331  0.13936746  0.18862389    -0.80700
O120        O  0.02355863  0.11363618  0.32537977    -0.80600
O121        O  0.43355254  0.16801155  0.22556339    -0.80700
O122        O  0.03942432  0.15736077  0.29680756    -0.80700
O123        O  0.47696587  0.11626697  0.32350805    -0.80600
O124        O  0.02647413  0.13565095  0.18277329    -0.80700
C125        C  0.04039303  0.16216652  0.19049547     1.09100
C126        C  0.46437257  0.14450733  0.32093459     1.08900
C127        C  0.44208263  0.16201304  0.19561242     1.09100
C128        C  0.03650653  0.14193030  0.32430045     1.09000
O129        O  0.06808093  0.10661965  0.27630405    -0.80600
O130        O  0.43223790  0.10575802  0.23098831    -0.80700
O131        O  0.03454631  0.07094570  0.20393377    -0.80700
O132        O  0.45815890  0.06517395  0.29276815    -0.80600
O133        O  0.43225343  0.10877319  0.27038645    -0.80700
O134        O  0.06650275  0.10988770  0.22477792    -0.80600
O135        O  0.03881104  0.06294421  0.29007601    -0.80600
O136        O  0.46199864  0.06940544  0.20516383    -0.80700
Co137      Co  0.03755490  0.13494907  0.25304823     1.51500
Co138      Co  0.46347634  0.13999186  0.24603327     1.51700
Co139      Co  0.99643604  0.10263827  0.19889004     1.51600
Co140      Co  0.49877684  0.08969193  0.28973891     1.51500
O141        O  0.49849927  0.11298583  0.24822117    -1.42600
C142        C  0.06577264  0.07725359  0.28674217     1.09000
C143        C  0.43474818  0.07947413  0.21381726     1.09100
C144        C  0.06275225  0.08260593  0.20965542     1.09000
C145        C  0.43247434  0.08144259  0.28738639     1.09000
O146        O  0.01327381  0.37949101  0.17624925    -0.80600
O147        O  0.46639251  0.37091439  0.31398754    -0.80700
O148        O  0.05876091  0.33588470  0.28133771    -0.80700
O149        O  0.45706880  0.34014264  0.20295522    -0.80600
O150        O  0.02873170  0.36858848  0.31284617    -0.80700
O151        O  0.47707480  0.38073962  0.17205234    -0.80700
O152        O  0.45695124  0.33031875  0.27845576    -0.80600
O153        O  0.03909242  0.34381518  0.21046420    -0.80700
C154        C  0.03099806  0.35367272  0.18110753     1.09100
C155        C  0.45619739  0.34233335  0.30753237     1.08900
C156        C  0.04877837  0.34471812  0.30999915     1.09100
C157        C  0.46116148  0.35339636  0.17468467     1.09000
O158        O  0.44725575  0.42758011  0.20624031    -0.80600
O159        O  0.02964839  0.43732319  0.29000014    -0.80700
O160        O  0.06710863  0.38974187  0.23521341    -0.80700
O161        O  0.42931240  0.39240541  0.27096205    -0.80600
O162        O  0.45975097  0.43408637  0.28778607    -0.80700
O163        O  0.04134101  0.41799680  0.19557156    -0.80600
O164        O  0.42259689  0.38168225  0.21940878    -0.80600
O165        O  0.06224093  0.40017542  0.26948618    -0.80700
Co166      Co  0.99475132  0.41720492  0.20445069     1.51500
Co167      Co  0.99642946  0.40359759  0.29654149     1.51700
Co168      Co  0.03144015  0.36336453  0.25592244     1.51600
Co169      Co  0.45858608  0.36497938  0.24475653     1.51500
O170        O  0.99659414  0.39052551  0.24670936    -1.42600
C171        C  0.42199893  0.41044805  0.20794278     1.09000
C172        C  0.05755014  0.42777324  0.28419675     1.09100
C173        C  0.06706098  0.40763843  0.20876437     1.09000
C174        C  0.43235430  0.42087049  0.28376142     1.09000
C175        C  0.37295206  0.46700468  0.33575757    -0.21800
C176        C  0.34410101  0.45370321  0.32341811    -0.09800
C177        C  0.34498019  0.43067176  0.29763148     0.29000
C178        C  0.37373732  0.42166482  0.28425648    -0.21800
C179        C  0.40256132  0.43558076  0.29568866    -0.09900
C180        C  0.40182234  0.45853727  0.32168044     0.29000
F181        F  0.42886063  0.47177777  0.33438407    -0.20400
H182        H  0.37321027  0.48471823  0.35589905     0.17400
H183        H  0.37330597  0.40299373  0.26504587     0.17400
F184        F  0.31822861  0.41608042  0.28587076    -0.20400
C185        C  0.09369222  0.43890600  0.33154626    -0.21800
C186        C  0.08576378  0.44498124  0.29814208    -0.09800
C187        C  0.10878597  0.45890530  0.27782659     0.29000
C188        C  0.13990269  0.46396581  0.29008638    -0.21800
C189        C  0.14819788  0.45629553  0.32328016    -0.09900
C190        C  0.12418480  0.44473971  0.34411026     0.29000
F191        F  0.13031930  0.43819600  0.37673181    -0.20400
H192        H  0.07657161  0.42783522  0.34766819     0.17400
H193        H  0.15718128  0.47472463  0.27398973     0.17400
F194        F  0.10097797  0.46807027  0.24636024    -0.20400
C195        C  0.35252770  0.08123292  0.32850490    -0.21800
C196        C  0.33947570  0.05121359  0.31799225    -0.09800
C197        C  0.35677086  0.03184230  0.29596583     0.29000
C198        C  0.38786974  0.04022888  0.28769093    -0.21800
C199        C  0.40130745  0.06978940  0.29913434    -0.09900
C200        C  0.38253867  0.09097146  0.31826246     0.29000
F201        F  0.39346015  0.12098853  0.32756675    -0.20400
H202        H  0.33965424  0.09694910  0.34525159     0.17400
H203        H  0.40084738  0.02442198  0.27113995     0.17400
F204        F  0.34323372  0.00511316  0.28205970    -0.20400
C205        C  0.12805193  0.03191230  0.33546503    -0.21800
C206        C  0.15608175  0.04543124  0.32272277    -0.09800
C207        C  0.15387301  0.06666996  0.29565556     0.29000
C208        C  0.12417183  0.07515504  0.28281919    -0.21800
C209        C  0.09618660  0.06198161  0.29596815    -0.09900
C210        C  0.09852154  0.03973625  0.32206761     0.29000
F211        F  0.07235502  0.02819682  0.33688475    -0.20400
H212        H  0.12867024  0.01599084  0.35694525     0.17400
H213        H  0.12307403  0.09398215  0.26404811     0.17400
F214        F  0.17989258  0.08139060  0.28354113    -0.20400
C215        C  0.33668759  0.41437250  0.18012633    -0.21800
C216        C  0.32760583  0.44571741  0.19047668    -0.09800
C217        C  0.34947935  0.46488855  0.20839714     0.29000
C218        C  0.38095517  0.45463248  0.21244823    -0.21800
C219        C  0.39045222  0.42402125  0.19998803    -0.09900
C220        C  0.36765079  0.40351689  0.18478723     0.29000
F221        F  0.37561808  0.37329614  0.17334409    -0.20400
H222        H  0.32016828  0.39897938  0.16659370     0.17400
H223        H  0.39752054  0.46999343  0.22621313     0.17400
F224        F  0.34012872  0.49350622  0.22182989    -0.20400
C225        C  0.12639380  0.41394044  0.21111757    -0.21800
C226        C  0.09747191  0.41667741  0.19335090    -0.09800
C227        C  0.09783223  0.42851105  0.16053964     0.29000
C228        C  0.12594467  0.43879339  0.14663886    -0.21800
C229        C  0.15445724  0.43883971  0.16527199    -0.09900
C230        C  0.15452298  0.42567019  0.19762649     0.29000
F231        F  0.18143341  0.42473633  0.21648443    -0.20400
H232        H  0.12702194  0.40414598  0.23612846     0.17400
H233        H  0.12496807  0.44815972  0.12145510     0.17400
F234        F  0.07097110  0.43032270  0.14164742    -0.20400
C235        C  0.37233008  0.02965779  0.16667142    -0.21800
C236        C  0.34405568  0.04314238  0.17902202    -0.09800
C237        C  0.34618100  0.06568502  0.20521300     0.29000
C238        C  0.37583027  0.07571589  0.21740917    -0.21800
C239        C  0.40427865  0.06299709  0.20450208    -0.09900
C240        C  0.40202309  0.03912359  0.17941854     0.29000
F241        F  0.42834038  0.02633821  0.16581488    -0.20400
H242        H  0.37146095  0.01181617  0.14663407     0.17400
H243        H  0.37631282  0.09461433  0.23638369     0.17400
F244        F  0.31981048  0.07952166  0.21765501    -0.20400
C245        C  0.12817590  0.02096476  0.18597020    -0.21800
C246        C  0.15539555  0.04108882  0.18658186    -0.09800
C247        C  0.15113618  0.07432585  0.19405933     0.29000
C248        C  0.12092399  0.08692770  0.19968382    -0.21800
C249        C  0.09357499  0.06681700  0.19986275    -0.09900
C250        C  0.09777743  0.03330108  0.19298653     0.29000
F251        F  0.07271007  0.01268143  0.19235795    -0.20400
H252        H  0.13025217  0.99553823  0.17880201     0.17400
H253        H  0.11912588  0.11310974  0.20410063     0.17400
F254        F  0.17590729  0.09533644  0.19314470    -0.20400
C255        C  0.33820064  0.41822711  0.04052666    -0.21800
C256        C  0.32082656  0.41734444  0.06988397    -0.09800
C257        C  0.31605415  0.38691981  0.08554098     0.29000
C258        C  0.32788054  0.35840143  0.07223720    -0.21800
C259        C  0.34401315  0.35863157  0.04231646    -0.09900
C260        C  0.34962283  0.38892554  0.02656443     0.29000
F261        F  0.36484001  0.39013841  0.99725722    -0.20400
H262        H  0.34190642  0.44126037  0.02785462     0.17400
H263        H  0.32334189  0.33573135  0.08527576     0.17400
F264        F  0.29889606  0.38404403  0.11342869    -0.20400
C265        C  0.30130363  0.15121066  0.06750348    -0.21800
C266        C  0.32612445  0.14759027  0.04555665    -0.09800
C267        C  0.33449022  0.11573007  0.03485834     0.29000
C268        C  0.31783628  0.08817850  0.04588982    -0.21800
C269        C  0.29378171  0.09190131  0.06898979    -0.09900
C270        C  0.28601340  0.12386684  0.07989533     0.29000
F271        F  0.26418747  0.12883493  0.10360106    -0.20400
H272        H  0.29473088  0.17529550  0.07653105     0.17400
H273        H  0.32506023  0.06390633  0.03804763     0.17400
F274        F  0.35895154  0.11112100  0.01416851    -0.20400
C275        C  0.31573322  0.34235979  0.40758021    -0.21800
C276        C  0.31257905  0.33556969  0.44148039    -0.09800
C277        C  0.29987813  0.35997432  0.46212766     0.29000
C278        C  0.29285947  0.39141137  0.44952470    -0.21800
C279        C  0.29758746  0.39864045  0.41584663    -0.09900
C280        C  0.30821659  0.37333821  0.39479469     0.29000
F281        F  0.31232819  0.37886771  0.36186822    -0.20400
H282        H  0.32598149  0.32420828  0.39126108     0.17400
H283        H  0.28298841  0.40977970  0.46582381     0.17400
F284        F  0.29377633  0.35320850  0.49428659    -0.20400
C285        C  0.29687784  0.10334318  0.45282591    -0.21800
C286        C  0.31855684  0.08255917  0.43713798    -0.09800
C287        C  0.34762895  0.09457666  0.42755977     0.29000
C288        C  0.35449079  0.12746389  0.43239510    -0.21800
C289        C  0.33272394  0.14860089  0.44750871    -0.09900
C290        C  0.30381882  0.13645309  0.45791454     0.29000
F291        F  0.28305572  0.15610131  0.47375759    -0.20400
H292        H  0.27408011  0.09404020  0.45979654     0.17400
H293        H  0.37727945  0.13647673  0.42491253     0.17400
F294        F  0.36835841  0.07506247  0.41147747    -0.20400
C295        C  0.41634819  0.34524399  0.34986974    -0.21800
C296        C  0.44029683  0.32676970  0.33493808    -0.09800
C297        C  0.45553219  0.30189442  0.35299047     0.29000
C298        C  0.44786306  0.29673056  0.38617873    -0.21800
C299        C  0.42428549  0.31554807  0.40107525    -0.09900
C300        C  0.40831916  0.33962600  0.38271175     0.29000
F301        F  0.38542399  0.35797605  0.39677216    -0.20400
H302        H  0.40521959  0.36544923  0.33660811     0.17400
H303        H  0.46004139  0.27778188  0.40026157     0.17400
F304        F  0.47888947  0.28403225  0.33914746    -0.20400
C305        C  0.42889943  0.30889100  0.14830023    -0.21800
C306        C  0.44812470  0.33658448  0.14444541    -0.09800
C307        C  0.45136166  0.34943163  0.11217454     0.29000
C308        C  0.43819503  0.33299813  0.08447803    -0.21800
C309        C  0.41918589  0.30506681  0.08841992    -0.09900
C310        C  0.41353912  0.29429352  0.12102411     0.29000
F311        F  0.39191507  0.27088096  0.12716659    -0.20400
H312        H  0.42421683  0.29939267  0.17282807     0.17400
H313        H  0.44134313  0.34336283  0.06000395     0.17400
F314        F  0.46534977  0.37886805  0.10734354    -0.20400
C315        C  0.43930703  0.20922624  0.38276682    -0.21800
C316        C  0.43868632  0.19156038  0.41271096    -0.09800
C317        C  0.44671985  0.15819612  0.41236126     0.29000
C318        C  0.45454710  0.14301823  0.38229758    -0.21800
C319        C  0.45556567  0.16103482  0.35233359    -0.09900
C320        C  0.44823452  0.19452528  0.35309753     0.29000
F321        F  0.44839752  0.21290042  0.32502664    -0.20400
H322        H  0.43056250  0.23406424  0.38184955     0.17400
H323        H  0.45904617  0.11685332  0.38236369     0.17400
F324        F  0.44403995  0.13966611  0.44016568    -0.20400
C325        C  0.44076525  0.20495057  0.11356925    -0.21800
C326        C  0.40848327  0.20739470  0.10660145    -0.09800
C327        C  0.38680251  0.19849201  0.13115463     0.29000
C328        C  0.39756581  0.18542419  0.16150290    -0.21800
C329        C  0.42990494  0.18138300  0.16750114    -0.09900
C330        C  0.45132378  0.19257487  0.14398272     0.29000
F331        F  0.48263138  0.19136649  0.15059739    -0.20400
H332        H  0.45780067  0.21248691  0.09542738     0.17400
H333        H  0.38075491  0.17696903  0.17944675     0.17400
F334        F  0.35527680  0.20087160  0.12515910    -0.20400
C335        C  0.16807890  0.37331470  0.45490357    -0.21800
C336        C  0.18182985  0.34260393  0.44816026    -0.09800
C337        C  0.20852330  0.34117602  0.42832660     0.29000
C338        C  0.22039150  0.37025375  0.41492808    -0.21800
C339        C  0.20655567  0.40082376  0.42253269    -0.09900
C340        C  0.18065640  0.40205724  0.44316507     0.29000
F341        F  0.16559424  0.43075423  0.44957103    -0.20400
H342        H  0.14644024  0.37522929  0.46848570     0.17400
H343        H  0.23973738  0.36879859  0.39792055     0.17400
F344        F  0.22136691  0.31191616  0.41975240    -0.20400
C345        C  0.16553813  0.12124745  0.47647160    -0.21800
C346        C  0.17884481  0.15175067  0.46739769    -0.09800
C347        C  0.20544742  0.15162767  0.44752138     0.29000
C348        C  0.21740482  0.12197943  0.43575716    -0.21800
C349        C  0.20314417  0.09158870  0.44313336    -0.09900
C350        C  0.17746729  0.09142936  0.46442565     0.29000
F351        F  0.16232964  0.06302092  0.47132921    -0.20400
H352        H  0.14495398  0.12046975  0.49190197     0.17400
H353        H  0.23709562  0.12301358  0.41910133     0.17400
F354        F  0.21871157  0.18013797  0.43758232    -0.20400
C355        C  0.22915794  0.39115094  0.04326687    -0.21800
C356        C  0.21093274  0.42014556  0.04498364    -0.09800
C357        C  0.17872317  0.41826564  0.03743812     0.29000
C358        C  0.16437002  0.38778382  0.03314446    -0.21800
C359        C  0.18192663  0.35823697  0.03379369    -0.09900
C360        C  0.21489530  0.36042528  0.03730356     0.29000
F361        F  0.23304085  0.33298975  0.03725569    -0.20400
H362        H  0.25403897  0.39193187  0.04979849     0.17400
H363        H  0.13895043  0.38749988  0.03015018     0.17400
F364        F  0.16026878  0.44542461  0.03948006    -0.20400
C365        C  0.16896820  0.15245727  0.08634304    -0.21800
C366        C  0.18483933  0.16812761  0.06065854    -0.09800
C367        C  0.20899226  0.15110187  0.04445586     0.29000
C368        C  0.21543815  0.11808226  0.05259045    -0.21800
C369        C  0.19941503  0.10275179  0.07857689    -0.09900
C370        C  0.17610649  0.12039736  0.09525161     0.29000
F371        F  0.15955356  0.10620113  0.11987949    -0.20400
H372        H  0.14959083  0.16465649  0.09848364     0.17400
H373        H  0.23370210  0.10503658  0.03960268     0.17400
F374        F  0.22567752  0.16598746  0.02042408    -0.20400
C375        C  0.08479937  0.28303645  0.37018654    -0.21800
C376        C  0.07231859  0.29285534  0.40093843    -0.09800
C377        C  0.05038682  0.31857992  0.40103040     0.29000
C378        C  0.04301136  0.33524687  0.37134968    -0.21800
C379        C  0.05718052  0.32650960  0.34095723    -0.09900
C380        C  0.07725248  0.29926573  0.34061288     0.29000
F381        F  0.09058829  0.28887556  0.31205127    -0.20400
H382        H  0.10248218  0.26415641  0.36919650     0.17400
H383        H  0.02659049  0.35556280  0.37243178     0.17400
F384        F  0.03804366  0.32934337  0.42995456    -0.20400
C385        C  0.03478846  0.34708214  0.11859384    -0.21800
C386        C  0.04309627  0.33611630  0.15095749    -0.09800
C387        C  0.06525717  0.31048873  0.15374770     0.29000
C388        C  0.07906186  0.29732023  0.12525804    -0.21800
C389        C  0.07027512  0.30779107  0.09301684    -0.09900
C390        C  0.04750435  0.33265195  0.08996270     0.29000
F391        F  0.03963470  0.34503688  0.05960328    -0.20400
H392        H  0.01955719  0.36803181  0.11536034     0.17400
H393        H  0.09784181  0.27972600  0.12850422     0.17400
F394        F  0.07515242  0.29933598  0.18399515    -0.20400
C395        C  0.07408248  0.17857238  0.35285000    -0.21800
C396        C  0.04923326  0.15655170  0.35531753    -0.09800
C397        C  0.03893476  0.14752611  0.38722272     0.29000
C398        C  0.05092224  0.16365174  0.41575713    -0.21800
C399        C  0.07536693  0.18652846  0.41290826    -0.09900
C400        C  0.08799552  0.19205615  0.38110843     0.29000
F401        F  0.11491079  0.20930301  0.37696645    -0.20400
H402        H  0.08400865  0.18417526  0.32891999     0.17400
H403        H  0.04225091  0.15715333  0.43999567     0.17400
F404        F  0.01832385  0.12253189  0.39100122    -0.20400
C405        C  0.04207158  0.17170837  0.12984345    -0.21800
C406        C  0.05370227  0.17997716  0.16200165    -0.09800
C407        C  0.07977176  0.20092822  0.16490460     0.29000
C408        C  0.09340098  0.21337399  0.13609353    -0.21800
C409        C  0.08043564  0.20628415  0.10414115    -0.09900
C410        C  0.05477496  0.18494592  0.10144234     0.29000
F411        F  0.04286995  0.17529782  0.07134262    -0.20400
H412        H  0.02300587  0.15430699  0.12633527     0.17400
H413        H  0.11452992  0.22805176  0.13885094     0.17400
F414        F  0.09318015  0.20774545  0.19509934    -0.20400
O415        O  0.08055700  0.21721217  0.54494070    -0.80600
O416        O  0.07749848  0.28259196  0.96189208    -0.80700
O417        O  0.11904887  0.29461461  0.56891222    -0.80700
O418        O  0.11999331  0.21310728  0.93772754    -0.80600
O419        O  0.07757751  0.29259955  0.53458188    -0.80700
O420        O  0.07986739  0.20450329  0.97017662    -0.80700
O421        O  0.11795228  0.27509911  0.92878327    -0.80600
O422        O  0.12169014  0.23175211  0.57634847    -0.80700
C423        C  0.09398696  0.22007305  0.57331760     1.09100
C424        C  0.08900831  0.28170090  0.93273728     1.08900
C425        C  0.08942415  0.29717288  0.56388690     1.09100
C426        C  0.09253764  0.20205679  0.94188644     1.09000
O427        O  0.13685995  0.18069537  0.98666751    -0.80600
O428        O  0.13474174  0.32888467  0.52544499    -0.80700
O429        O  0.17813428  0.22396133  0.54084478    -0.80700
O430        O  0.17642639  0.28631115  0.96381119    -0.80600
O431        O  0.13447942  0.31909488  0.96253263    -0.80700
O432        O  0.13745672  0.18934964  0.53641824    -0.81800
O433        O  0.17691203  0.21295461  0.97332538    -0.80600
O434        O  0.17689631  0.29751704  0.53235508    -0.80700
Co435      Co  0.10853183  0.21580572  0.50714256     1.51500
Co436      Co  0.10610921  0.30202352  0.99692156     1.51700
Co437      Co  0.14891584  0.26184407  0.54973578     1.51600
Co438      Co  0.14790680  0.24821918  0.95586372     1.51500
O439        O  0.12810763  0.25819934  0.50205280    -1.42600
C440        C  0.16486106  0.18402997  0.97602823     1.09000
C441        C  0.16438492  0.32612185  0.53006889     1.09100
C442        C  0.16613277  0.19529620  0.54492362     1.09000
C443        C  0.16384951  0.31450302  0.95896524     1.09000
O444        O  0.37361632  0.23417380  0.57057279    -0.80600
O445        O  0.38986539  0.28040723  0.92861444    -0.80700
O446        O  0.42927756  0.20502813  0.97293440    -0.80700
O447        O  0.41374080  0.29565881  0.52975817    -0.80600
O448        O  0.39391739  0.21512259  0.93258176    -0.80700
O449        O  0.37773793  0.27291220  0.56346958    -0.80700
O450        O  0.42114585  0.31351905  0.96021166    -0.80600
O451        O  0.41493828  0.21026204  0.54571098    -0.80700
C452        C  0.39963032  0.21713372  0.57177548     1.09100
C453        C  0.41160290  0.30265288  0.93181550     1.08900
C454        C  0.42093988  0.20496164  0.94230776     1.09100
C455        C  0.40338477  0.28960857  0.55885840     1.09000
O456        O  0.34316684  0.30007735  0.54302744    -0.80600
O457        O  0.33166625  0.20649100  0.95585314    -0.80700
O458        O  0.37268659  0.17431764  0.52586855    -0.80700
O459        O  0.35815743  0.31458668  0.96888680    -0.80600
O460        O  0.32419162  0.27737731  0.94981564    -0.80700
O461        O  0.32960389  0.20415423  0.53252841    -0.80600
O462        O  0.36940499  0.32396056  0.50239706    -0.80600
O463        O  0.37217346  0.17700235  0.97559568    -0.80700
Co464      Co  0.34211993  0.25195332  0.53465131     1.51500
Co465      Co  0.35904398  0.24506752  0.94593231     1.51700
Co466      Co  0.39415141  0.20964796  0.50177994     1.51600
Co467      Co  0.39523800  0.28538710  0.98458142     1.51500
O468        O  0.37015926  0.24960325  0.49518580    -1.42600
C469        C  0.35279597  0.32579361  0.52874772     1.09000
C470        C  0.34554562  0.17897393  0.96081882     1.09100
C471        C  0.34413944  0.17672274  0.53408374     1.09000
C472        C  0.33155874  0.30720755  0.95490656     1.09000
O473        O  0.21322555  0.03251179  0.67989779    -0.80600
O474        O  0.27460332  0.45937131  0.67786677    -0.80700
O475        O  0.18074935  0.46566988  0.62178897    -0.80700
O476        O  0.31633479  0.02671052  0.63139574    -0.80600
O477        O  0.20997831  0.45611443  0.66642712    -0.80700
O478        O  0.28705741  0.03299972  0.67646056    -0.80700
O479        O  0.30993437  0.47269747  0.64289411    -0.80600
O480        O  0.17980163  0.02820287  0.63595090    -0.80700
C481        C  0.18482212  0.03226080  0.66716602     1.09100
C482        C  0.30303756  0.46088599  0.67052347     1.08900
C483        C  0.18341882  0.45483239  0.65135883     1.09100
C484        C  0.31412504  0.03413246  0.66210481     1.09000
O485        O  0.27711883  0.06817830  0.61738272    -0.80600
O486        O  0.22296127  0.43449471  0.59974026    -0.80700
O487        O  0.21506688  0.04487217  0.57653173    -0.80700
O488        O  0.31599847  0.47532606  0.57837617    -0.80600
O489        O  0.28283182  0.44129890  0.60419188    -0.80700
O490        O  0.21565548  0.07196746  0.62372024    -0.80600
O491        O  0.27842923  0.03452917  0.57371556    -0.80600
O492        O  0.21992612  0.47518832  0.56406845    -0.80700
Co493      Co  0.24821000  0.04728771  0.64968108     1.51500
Co494      Co  0.24741562  0.45238285  0.63782459     1.51700
Co495      Co  0.20266106  0.00382829  0.60034464     1.51600
Co496      Co  0.28663827  0.99815479  0.60569690     1.51500
O497        O  0.24500350  0.00239698  0.62648142    -1.42600
C498        C  0.28204561  0.06316133  0.58658678     1.09000
C499        C  0.22050083  0.44453805  0.57016889     1.09100
C500        C  0.21129235  0.07147277  0.59250803     1.09000
C501        C  0.30571070  0.44620357  0.58379598     1.09000
O502        O  0.18303064  0.02917593  0.87056572    -0.80600
O503        O  0.31549603  0.48025302  0.86502345    -0.80700
O504        O  0.28367643  0.04288423  0.82583185    -0.80700
O505        O  0.20539879  0.46198598  0.82299716    -0.80600
O506        O  0.31639030  0.01904192  0.86209964    -0.80700
O507        O  0.17915670  0.47655866  0.86879138    -0.80700
O508        O  0.28651819  0.45712870  0.82317888    -0.80600
O509        O  0.21401929  0.04506972  0.82924733    -0.80700
C510        C  0.18644714  0.04033179  0.84135399     1.09100
C511        C  0.31333508  0.46275816  0.83788701     1.08900
C512        C  0.31157316  0.03569980  0.83541958     1.09100
C513        C  0.17931334  0.46563022  0.83877838     1.09000
O514        O  0.21277390  0.45969003  0.92124139    -0.80600
O515        O  0.31671519  0.02410516  0.92589192    -0.80700
O516        O  0.22317261  0.07020552  0.89358555    -0.80700
O517        O  0.27099398  0.42760931  0.87360408    -0.80600
O518        O  0.29191967  0.45703831  0.91579020    -0.80700
O519        O  0.21092956  0.03421174  0.93200550    -0.80600
O520        O  0.22479755  0.42940096  0.87687605    -0.80600
O521        O  0.28596153  0.06024563  0.89664344    -0.80700
Co522      Co  0.21206952  0.00070635  0.89564981     1.51500
Co523      Co  0.28627938  0.00369548  0.89808815     1.51700
Co524      Co  0.25169054  0.05102399  0.86035725     1.51600
Co525      Co  0.24708476  0.46190701  0.84883383     1.51500
O526        O  0.24982012  0.00297927  0.87186770    -1.42600
C527        C  0.21523565  0.43196584  0.90666146     1.09000
C528        C  0.30724839  0.05349104  0.91937706     1.09100
C529        C  0.21423540  0.06386430  0.92268643     1.09000
C530        C  0.28633416  0.42938972  0.90118866     1.09000
O531        O  0.04273125  0.17105249  0.71833886    -0.80600
O532        O  0.46129070  0.16073032  0.79569442    -0.80700
O533        O  0.46456206  0.13340896  0.68137843    -0.80700
O534        O  0.02402171  0.11519055  0.82399311    -0.80600
O535        O  0.45229389  0.17037904  0.72029686    -0.80700
O536        O  0.03968723  0.15934414  0.79597372    -0.80700
O537        O  0.47747302  0.11690062  0.82413259    -0.80600
O538        O  0.02781346  0.13322304  0.68113604    -0.80700
C539        C  0.04047275  0.16072165  0.68840902     1.09100
C540        C  0.46589475  0.14589370  0.82333746     1.08900
C541        C  0.45288256  0.16115453  0.69011081     1.09100
C542        C  0.03711099  0.14344699  0.82328121     1.09000
O543        O  0.06826367  0.10861610  0.77576068    -0.80600
O544        O  0.42995939  0.10862596  0.72662157    -0.80700
O545        O  0.03582608  0.07019239  0.70733773    -0.80700
O546        O  0.45876171  0.06468000  0.79090958    -0.80600
O547        O  0.42955740  0.10924302  0.77896625    -0.80700
O548        O  0.06715694  0.11103757  0.72492249    -0.80600
O549        O  0.03936501  0.06470631  0.78928785    -0.80600
O550        O  0.46213421  0.06891768  0.70908239    -0.80700
Co551      Co  0.03758821  0.13683974  0.75213391     1.51500
Co552      Co  0.45942268  0.13603995  0.75318955     1.51700
Co553      Co  0.99749642  0.10063446  0.69842831     1.51600
Co554      Co  0.49913635  0.09125934  0.78827169     1.51500
O555        O  0.49851162  0.11552255  0.74628118    -1.42600
C556        C  0.06622766  0.07934372  0.78658606     1.09000
C557        C  0.43410348  0.08019098  0.71417489     1.09100
C558        C  0.06383106  0.08284709  0.71143119     1.09000
C559        C  0.43200353  0.07997774  0.79008303     1.09000
O560        O  0.01395339  0.37825635  0.67722675    -0.80600
O561        O  0.46798071  0.36834078  0.81456076    -0.80700
O562        O  0.06089324  0.33607278  0.78241562    -0.80700
O563        O  0.45781421  0.33877419  0.70324428    -0.80600
O564        O  0.03026833  0.36844131  0.81359119    -0.80700
O565        O  0.47778507  0.37965983  0.67269081    -0.80700
O566        O  0.45890383  0.32804471  0.77853330    -0.80600
O567        O  0.04058419  0.34317492  0.71139923    -0.80700
C568        C  0.03197603  0.35268469  0.68205844     1.09100
C569        C  0.45840898  0.33956680  0.80782524     1.08900
C570        C  0.05094099  0.34515813  0.81101010     1.09100
C571        C  0.46180415  0.35231768  0.67509036     1.09000
O572        O  0.44804105  0.42626171  0.70748913    -0.80600
O573        O  0.02918165  0.43696826  0.79067318    -0.80700
O574        O  0.06807372  0.38991457  0.73631517    -0.80700
O575        O  0.42963720  0.38933400  0.77215291    -0.80600
O576        O  0.45940009  0.43163952  0.78862385    -0.80700
O577        O  0.04206480  0.41706157  0.69606977    -0.80600
O578        O  0.42341355  0.38024327  0.72034026    -0.80600
O579        O  0.06267256  0.40060544  0.77028930    -0.80700
Co580      Co  0.99549617  0.41599830  0.70530340     1.51500
Co581      Co  0.99693015  0.40224486  0.79725759     1.51700
Co582      Co  0.03285507  0.36281742  0.75685843     1.51600
Co583      Co  0.45956214  0.36319704  0.74531315     1.51500
O584        O  0.99741231  0.38919371  0.74745046    -1.42600
C585        C  0.42280104  0.40910918  0.70912105     1.09000
C586        C  0.05731254  0.42812860  0.78489978     1.09100
C587        C  0.06789036  0.40739072  0.70959182     1.09000
C588        C  0.43222187  0.41787788  0.78490149     1.09000
C589        C  0.37256968  0.46472392  0.83607423    -0.21800
C590        C  0.34369358  0.45129981  0.82396358    -0.09800
C591        C  0.34462030  0.42767246  0.79869568     0.29000
C592        C  0.37345388  0.41824765  0.78559183    -0.21800
C593        C  0.40226683  0.43236440  0.79679680    -0.09900
C594        C  0.40145495  0.45591198  0.82223654     0.29000
F595        F  0.42845659  0.46955934  0.83456073    -0.20400
H596        H  0.37284073  0.48288292  0.85580322     0.17400
H597        H  0.37310703  0.39927125  0.76667840     0.17400
F598        F  0.31784571  0.41291485  0.78723805    -0.20400
C599        C  0.09323133  0.43986080  0.83227733    -0.21800
C600        C  0.08513067  0.44598253  0.79891337    -0.09800
C601        C  0.10792542  0.46032679  0.77860686     0.29000
C602        C  0.13908269  0.46547760  0.79072876    -0.21800
C603        C  0.14759852  0.45756972  0.82381211    -0.09900
C604        C  0.12373487  0.44587304  0.84473252     0.29000
F605        F  0.13007199  0.43926956  0.87730461    -0.20400
H606        H  0.07628462  0.42851860  0.84841277     0.17400
H607        H  0.15623060  0.47643016  0.77460892     0.17400
F608        F  0.09989960  0.46961171  0.74721843    -0.20400
C609        C  0.35315277  0.07733724  0.83135816    -0.21800
C610        C  0.33973178  0.04845392  0.81868529    -0.09800
C611        C  0.35720717  0.02935288  0.79658865     0.29000
C612        C  0.38855516  0.03760101  0.78923632    -0.21800
C613        C  0.40221700  0.06623250  0.80266880    -0.09900
C614        C  0.38363504  0.08653321  0.82296979     0.29000
F615        F  0.39496467  0.11564076  0.83460347    -0.20400
H616        H  0.34018567  0.09251676  0.84852896     0.17400
H617        H  0.40147267  0.02262449  0.77187518     0.17400
F618        F  0.34371027  0.00291633  0.78205172    -0.20400
C619        C  0.12842347  0.03307876  0.83519904    -0.21800
C620        C  0.15655465  0.04694679  0.82308143    -0.09800
C621        C  0.15448731  0.06940327  0.79707717     0.29000
C622        C  0.12485534  0.07867099  0.78470473    -0.21800
C623        C  0.09675824  0.06454711  0.79656898    -0.09900
C624        C  0.09894856  0.04123950  0.82174289     0.29000
F625        F  0.07268424  0.02879183  0.83560633    -0.20400
H626        H  0.12895095  0.01647257  0.85613145     0.17400
H627        H  0.12394221  0.09868568  0.76727933     0.17400
F628        F  0.18059758  0.08457253  0.78573321    -0.20400
C629        C  0.33832841  0.41386777  0.67834421    -0.21800
C630        C  0.32878899  0.44481354  0.68953273    -0.09800
C631        C  0.35012331  0.46349659  0.70868912     0.29000
C632        C  0.38142555  0.45300395  0.71376414    -0.21800
C633        C  0.39131984  0.42271539  0.70085535    -0.09900
C634        C  0.36909193  0.40275703  0.68404119     0.29000
F635        F  0.37752156  0.37294970  0.67188872    -0.20400
H636        H  0.32239464  0.39901697  0.66343779     0.17400
H637        H  0.39759144  0.46803465  0.72842076     0.17400
F638        F  0.34054051  0.49208612  0.72195668    -0.20400
C639        C  0.12699376  0.41575638  0.71278538    -0.21800
C640        C  0.09828843  0.41692193  0.69442218    -0.09800
C641        C  0.09884587  0.42765244  0.66124759     0.29000
C642        C  0.12692001  0.43816166  0.64741961    -0.21800
C643        C  0.15514923  0.43971091  0.66648834    -0.09900
C644        C  0.15500633  0.42791213  0.69937978     0.29000
F645        F  0.18156398  0.42873355  0.71881154    -0.20400
H646        H  0.12749758  0.40682473  0.73812497     0.17400
H647        H  0.12611403  0.44645514  0.62184874     0.17400
F648        F  0.07222929  0.42800882  0.64188301    -0.20400
C649        C  0.37294790  0.02901761  0.66706113    -0.21800
C650        C  0.34451378  0.04213403  0.67944769    -0.09800
C651        C  0.34628759  0.06399909  0.70622723     0.29000
C652        C  0.37573822  0.07408894  0.71874561    -0.21800
C653        C  0.40430723  0.06247363  0.70522979    -0.09900
C654        C  0.40250826  0.03875682  0.67997859     0.29000
F655        F  0.42905922  0.02667682  0.66622545    -0.20400
H656        H  0.37230759  0.01149671  0.64673041     0.17400
H657        H  0.37603295  0.09237200  0.73835056     0.17400
F658        F  0.31975274  0.07725546  0.71889977    -0.20400
C659        C  0.12809714  0.02235522  0.68221815    -0.21800
C660        C  0.15594003  0.04131996  0.68596809    -0.09800
C661        C  0.15259420  0.07351041  0.69746917     0.29000
C662        C  0.12263276  0.08625912  0.70409344    -0.21800
C663        C  0.09472330  0.06699559  0.70183596    -0.09900
C664        C  0.09803553  0.03451698  0.69067708     0.29000
F665        F  0.07233096  0.01508293  0.68641841    -0.20400
H666        H  0.12936835  0.99833832  0.67097906     0.17400
H667        H  0.12151024  0.11197196  0.71090536     0.17400
F668        F  0.17795290  0.09377488  0.69924164    -0.20400
C669        C  0.33864100  0.41743656  0.54103671    -0.21800
C670        C  0.32032698  0.41659087  0.56970263    -0.09800
C671        C  0.31457518  0.38613646  0.58496287     0.29000
C672        C  0.32640176  0.35754578  0.57187553    -0.21800
C673        C  0.34365053  0.35780642  0.54269956    -0.09900
C674        C  0.35014433  0.38810531  0.52734616     0.29000
F675        F  0.36647527  0.38934527  0.49873067    -0.20400
H676        H  0.34315583  0.44050338  0.52873787     0.17400
H677        H  0.32104671  0.33484065  0.58448143     0.17400
F678        F  0.29648247  0.38329788  0.61220427    -0.20400
C679        C  0.30232324  0.15080025  0.56672289    -0.21800
C680        C  0.32684818  0.14709889  0.54440284    -0.09800
C681        C  0.33480160  0.11526073  0.53334990     0.29000
C682        C  0.31823594  0.08776054  0.54466736    -0.21800
C683        C  0.29461166  0.09156166  0.56825565    -0.09900
C684        C  0.28701677  0.12353611  0.57922367     0.29000
F685        F  0.26532259  0.12857767  0.60305601    -0.20400
H686        H  0.29596959  0.17489169  0.57591116     0.17400
H687        H  0.32519229  0.06347051  0.53661594     0.17400
F688        F  0.35875494  0.11063873  0.51202368    -0.20400
C689        C  0.31492376  0.34135654  0.90730818    -0.21800
C690        C  0.31240955  0.33467038  0.94130266    -0.09800
C691        C  0.29981785  0.35903832  0.96207494     0.29000
C692        C  0.29249148  0.39041117  0.94952268    -0.21800
C693        C  0.29673301  0.39759790  0.91576492    -0.09900
C694        C  0.30709588  0.37228738  0.89457242     0.29000
F695        F  0.31074002  0.37779418  0.86157185    -0.20400
H696        H  0.32493398  0.32318206  0.89085096     0.17400
H697        H  0.28280807  0.40877984  0.96595078     0.17400
F698        F  0.29409356  0.35229336  0.99431767    -0.20400
C699        C  0.29777753  0.10225952  0.95291749    -0.21800
C700        C  0.31953825  0.08183542  0.93687323    -0.09800
C701        C  0.34862190  0.09415726  0.92764952     0.29000
C702        C  0.35541920  0.12698015  0.93327304    -0.21800
C703        C  0.33350920  0.14776363  0.94864558    -0.09900
C704        C  0.30463034  0.13527746  0.95874199     0.29000
F705        F  0.28377733  0.15450139  0.97496886    -0.20400
H706        H  0.27495209  0.09279356  0.95958811     0.17400
H707        H  0.37820261  0.13624116  0.92607104     0.17400
F708        F  0.36948036  0.07503224  0.91129865    -0.20400
C709        C  0.41680042  0.34025059  0.84807486    -0.21800
C710        C  0.44274484  0.32343575  0.83504405    -0.09800
C711        C  0.45944193  0.30101007  0.85501794     0.29000
C712        C  0.45087471  0.29650429  0.88807662    -0.21800
C713        C  0.42527248  0.31380302  0.90106356    -0.09900
C714        C  0.40813149  0.33550318  0.88085269     0.29000
F715        F  0.38349646  0.35259131  0.89313392    -0.20400
H716        H  0.40457426  0.35880137  0.83342642     0.17400
H717        H  0.46385306  0.27911983  0.90344503     0.17400
F718        F  0.48486622  0.28492339  0.84309732    -0.20400
C719        C  0.43039016  0.30733674  0.64824606    -0.21800
C720        C  0.44859636  0.33582529  0.64470587    -0.09800
C721        C  0.45060557  0.34967012  0.61270840     0.29000
C722        C  0.43754596  0.33339038  0.58484916    -0.21800
C723        C  0.41970259  0.30459164  0.58845357    -0.09900
C724        C  0.41498341  0.29286418  0.62091333     0.29000
F725        F  0.39422133  0.26856203  0.62691060    -0.20400
H726        H  0.42655915  0.29702545  0.67261792     0.17400
H727        H  0.43980003  0.34448898  0.56057660     0.17400
F728        F  0.46331860  0.37983227  0.60837047    -0.20400
C729        C  0.44154609  0.20956210  0.88626552    -0.21800
C730        C  0.44028796  0.19132963  0.91575577    -0.09800
C731        C  0.44817325  0.15791130  0.91495236     0.29000
C732        C  0.45644415  0.14322673  0.88476007    -0.21800
C733        C  0.45789708  0.16181610  0.85523097    -0.09900
C734        C  0.45058521  0.19531630  0.85648986     0.29000
F735        F  0.45041364  0.21408195  0.82866985    -0.20400
H736        H  0.43293553  0.23446748  0.88571129     0.17400
H737        H  0.46068283  0.11701804  0.88429215     0.17400
F738        F  0.44484032  0.13889854  0.94232046    -0.20400
C739        C  0.44497357  0.20818871  0.61065800    -0.21800
C740        C  0.41247116  0.20676485  0.60435541    -0.09800
C741        C  0.39259366  0.19443006  0.62903156     0.29000
C742        C  0.40562772  0.18135579  0.65847017    -0.21800
C743        C  0.43837587  0.18143438  0.66384608    -0.09900
C744        C  0.45765537  0.19628138  0.64049387     0.29000
F745        F  0.48886007  0.19917722  0.64666596    -0.20400
H746        H  0.46054121  0.21851764  0.59244714     0.17400
H747        H  0.39038183  0.16986015  0.67627332     0.17400
F748        F  0.36087462  0.19333818  0.62387862    -0.20400
C749        C  0.16803350  0.37433075  0.95653700    -0.21800
C750        C  0.18138236  0.34366065  0.94885881    -0.09800
C751        C  0.20744040  0.34229147  0.92815771     0.29000
C752        C  0.21918689  0.37141976  0.91492980    -0.21800
C753        C  0.20585154  0.40197937  0.92345145    -0.09900
C754        C  0.18060349  0.40317657  0.94496508     0.29000
F755        F  0.16612700  0.43194878  0.95240477    -0.20400
H756        H  0.14673829  0.37609074  0.97071623     0.17400
H757        H  0.23798617  0.37000317  0.89724708     0.17400
F758        F  0.21960492  0.31306021  0.91845904    -0.20400
C759        C  0.16972652  0.12270944  0.97795833    -0.21800
C760        C  0.18174484  0.15328106  0.96735911    -0.09800
C761        C  0.20728729  0.15333976  0.94598247     0.29000
C762        C  0.21918605  0.12367170  0.93407948    -0.21800
C763        C  0.20584295  0.09315208  0.94282752    -0.09900
C764        C  0.18163397  0.09292503  0.96590638     0.29000
F765        F  0.16781847  0.06434548  0.97476091    -0.20400
H766        H  0.15014689  0.12181679  0.99476037     0.17400
H767        H  0.23801360  0.12473470  0.91634840     0.17400
F768        F  0.21934164  0.18193863  0.93467276    -0.20400
C769        C  0.22953596  0.38971105  0.54547070    -0.21800
C770        C  0.21173513  0.41904747  0.54570706    -0.09800
C771        C  0.17998671  0.41769807  0.53602361     0.29000
C772        C  0.16539296  0.38741903  0.53101933    -0.21800
C773        C  0.18239611  0.35756480  0.53317291    -0.09900
C774        C  0.21513896  0.35919089  0.53891348     0.29000
F775        F  0.23275763  0.33142006  0.54072758    -0.20400
H776        H  0.25400100  0.39011026  0.55360415     0.17400
H777        H  0.14015306  0.38754390  0.52644794     0.17400
F778        F  0.16192810  0.44522732  0.53646983    -0.20400
C779        C  0.16688988  0.15028415  0.58436432    -0.21800
C780        C  0.18302480  0.16704784  0.55955856    -0.09800
C781        C  0.20810868  0.15116902  0.54374402     0.29000
C782        C  0.21565707  0.11837020  0.55180062    -0.21800
C783        C  0.19952823  0.10207084  0.57711776    -0.09900
C784        C  0.17498486  0.11842031  0.59310363     0.29000
F785        F  0.15840946  0.10322369  0.61711630    -0.20400
H786        H  0.14682929  0.16157678  0.59615800     0.17400
H787        H  0.23473449  0.10623937  0.53923275     0.17400
F788        F  0.22460627  0.16690754  0.52011526    -0.20400
C789        C  0.08055783  0.28041563  0.87167409    -0.21800
C790        C  0.07205247  0.29367114  0.90260797    -0.09800
C791        C  0.05563842  0.32350160  0.90297677     0.29000
C792        C  0.04960478  0.34030186  0.87313111    -0.21800
C793        C  0.05968228  0.32769125  0.84226570    -0.09900
C794        C  0.07446830  0.29694992  0.84187367     0.29000
F795        F  0.08347579  0.28293537  0.81291000    -0.20400
H796        H  0.09389330  0.25805991  0.87067506     0.17400
H797        H  0.03748291  0.36365906  0.87437163     0.17400
F798        F  0.04783824  0.33778026  0.93222040    -0.20400
C799        C  0.03319909  0.34420669  0.61955859    -0.21800
C800        C  0.04384267  0.33506747  0.65180620    -0.09800
C801        C  0.06800190  0.31146361  0.65417514     0.29000
C802        C  0.08149717  0.29864863  0.62534545    -0.21800
C803        C  0.07059486  0.30748550  0.59319896    -0.09900
C804        C  0.04572076  0.33009976  0.59065343     0.29000
F805        F  0.03536118  0.34073278  0.56038468    -0.20400
H806        H  0.01613359  0.36354382  0.61654111     0.17400
H807        H  0.10169921  0.28273480  0.62821853     0.17400
F808        F  0.08017224  0.30221970  0.68421993    -0.20400
C809        C  0.07625899  0.17824338  0.85226549    -0.21800
C810        C  0.05063297  0.15714816  0.85447162    -0.09800
C811        C  0.04052761  0.14769876  0.88633488     0.29000
C812        C  0.05287957  0.16322096  0.91505728    -0.21800
C813        C  0.07777656  0.18559128  0.91248584    -0.09900
C814        C  0.09076704  0.19077418  0.88074932     0.29000
F815        F  0.11825971  0.20716339  0.87682961    -0.20400
H816        H  0.08622757  0.18383648  0.82835551     0.17400
H817        H  0.04402794  0.15670769  0.93921486     0.17400
F818        F  0.01979389  0.12279744  0.88989053    -0.20400
C819        C  0.04295111  0.16946535  0.62795234    -0.21800
C820        C  0.05386313  0.17828580  0.66013143    -0.09800
C821        C  0.07881052  0.20058252  0.66359785     0.29000
C822        C  0.09192368  0.21410886  0.63514458    -0.21800
C823        C  0.07941565  0.20669421  0.60313906    -0.09900
C824        C  0.05493962  0.18393590  0.59990184     0.29000
F825        F  0.04350238  0.17427950  0.56961822    -0.20400
H826        H  0.02443389  0.15144219  0.62429421     0.17400
H827        H  0.11233372  0.22977035  0.63820269     0.17400
F828        F  0.09163757  0.20778074  0.69398608    -0.20400
O829        O  0.08189431  0.71570102  0.04533976    -0.80600
O830        O  0.07736022  0.78310912  0.46079716    -0.80700
O831        O  0.11905933  0.79431693  0.06957584    -0.80700
O832        O  0.11840464  0.71301641  0.43796633    -0.80600
O833        O  0.07779322  0.79194463  0.03500128    -0.80700
O834        O  0.07806913  0.70576280  0.47048394    -0.80700
O835        O  0.11823425  0.77488962  0.42851807    -0.80600
O836        O  0.12260758  0.73137884  0.07679064    -0.80700
C837        C  0.09511180  0.71913767  0.07382298     1.09100
C838        C  0.08928759  0.78180139  0.43178680     1.08900
C839        C  0.08946308  0.79691102  0.06425330     1.09100
C840        C  0.09059635  0.70294082  0.44219872     1.09000
O841        O  0.13446318  0.68013313  0.48670654    -0.80600
O842        O  0.13451481  0.82895103  0.02610646    -0.80700
O843        O  0.17918892  0.72469576  0.04114511    -0.80700
O844        O  0.17651906  0.78512246  0.46364557    -0.80600
O845        O  0.13498014  0.81855989  0.46219399    -0.80700
O846        O  0.13913005  0.68935862  0.03638556    -0.81800
O847        O  0.17525681  0.71143586  0.47354744    -0.80600
O848        O  0.17699427  0.79808980  0.03280728    -0.80700
Co849      Co  0.10980767  0.71537662  0.00720445     1.51500
Co850      Co  0.10601434  0.80215614  0.49632521     1.51700
Co851      Co  0.14939932  0.76201948  0.05014592     1.51600
Co852      Co  0.14725508  0.74746828  0.45584553     1.51500
O853        O  0.12864118  0.75825384  0.00235662    -1.42600
C854        C  0.16253927  0.68277915  0.47608872     1.09000
C855        C  0.16419971  0.82654679  0.03055508     1.09100
C856        C  0.16762714  0.69584380  0.04515501     1.09000
C857        C  0.16432813  0.81354348  0.45875306     1.09000
O858        O  0.37196639  0.73553892  0.07121928    -0.80600
O859        O  0.38910662  0.78161422  0.42844603    -0.80700
O860        O  0.42888687  0.70525464  0.47037059    -0.80700
O861        O  0.41386199  0.79539738  0.02986979    -0.80600
O862        O  0.39301763  0.71628993  0.43085567    -0.80700
O863        O  0.37703487  0.77381166  0.06339730    -0.80700
O864        O  0.42053680  0.81443000  0.46021506    -0.80600
O865        O  0.41363871  0.71059905  0.04808112    -0.80700
C866        C  0.39756488  0.71797694  0.07349471     1.09100
C867        C  0.41074356  0.80394180  0.43175688     1.08900
C868        C  0.42006382  0.70568792  0.43987550     1.09100
C869        C  0.40304937  0.78995878  0.05888479     1.09000
O870        O  0.34282463  0.80097488  0.04221396    -0.80600
O871        O  0.33117785  0.70730182  0.45510487    -0.80700
O872        O  0.37212474  0.67469362  0.02756661    -0.80700
O873        O  0.35785004  0.81507364  0.46946146    -0.80600
O874        O  0.32367543  0.77818117  0.45020474    -0.80700
O875        O  0.32901314  0.70476242  0.03324166    -0.80600
O876        O  0.37001237  0.82435017  0.00202979    -0.80600
O877        O  0.37190148  0.67752899  0.47388177    -0.80700
Co878      Co  0.34143569  0.75278137  0.03445316     1.51500
Co879      Co  0.35845993  0.74599271  0.44545996     1.51700
Co880      Co  0.39399417  0.70963682  0.00354490     1.51600
Co881      Co  0.39514025  0.78568572  0.48447243     1.51500
O882        O  0.37019903  0.74954560  0.99576724    -1.42600
C883        C  0.35309716  0.82652913  0.02815272     1.09000
C884        C  0.34506792  0.67972303  0.45959278     1.09100
C885        C  0.34348510  0.67727468  0.03531597     1.09000
C886        C  0.33121287  0.80793012  0.45540082     1.09000
O887        O  0.21249714  0.53170106  0.18047802    -0.80600
O888        O  0.27342216  0.95922999  0.17788936    -0.80700
O889        O  0.18024560  0.96508431  0.12089370    -0.80700
O890        O  0.31558824  0.52734349  0.13153818    -0.80600
O891        O  0.20918042  0.95529743  0.16561503    -0.80700
O892        O  0.28654305  0.53328596  0.17678342    -0.80700
O893        O  0.30904099  0.97315521  0.14346142    -0.80600
O894        O  0.17896517  0.52725462  0.13656435    -0.80700
C895        C  0.18405857  0.53136383  0.16779352     1.09100
C896        C  0.30191324  0.96134090  0.17104114     1.08900
C897        C  0.18275084  0.95395099  0.15032629     1.09100
C898        C  0.31351182  0.53481803  0.16222742     1.09000
O899        O  0.27577354  0.56845293  0.11787058    -0.80600
O900        O  0.22308665  0.93470547  0.09876807    -0.80700
O901        O  0.21417779  0.54533118  0.07725760    -0.80700
O902        O  0.31576584  0.97598535  0.07877798    -0.80600
O903        O  0.28289644  0.94137727  0.10420907    -0.80700
O904        O  0.21427623  0.57161188  0.12482763    -0.80600
O905        O  0.27771197  0.53487411  0.07413475    -0.80600
O906        O  0.21945953  0.97595782  0.06373486    -0.80700
Co907      Co  0.24725670  0.54706530  0.15025221     1.51500
Co908      Co  0.24694895  0.95220302  0.13742658     1.51700
Co909      Co  0.20201502  0.50377348  0.10037006     1.51600
Co910      Co  0.28607166  0.49846549  0.10605115     1.51500
O911        O  0.24432258  0.50232183  0.12660798    -1.42600
C912        C  0.28104011  0.56351372  0.08712305     1.09000
C913        C  0.22028392  0.94521716  0.06938338     1.09100
C914        C  0.21026158  0.57168210  0.09359802     1.09000
C915        C  0.30589348  0.94668808  0.08403522     1.09000
O916        O  0.18279232  0.52779583  0.37007603    -0.80600
O917        O  0.31566343  0.98204378  0.36465991    -0.80700
O918        O  0.28344977  0.54491764  0.32611253    -0.80700
O919        O  0.20576701  0.96150560  0.32282127    -0.80600
O920        O  0.31661042  0.52118959  0.36187745    -0.80700
O921        O  0.17933541  0.97519836  0.36871094    -0.80700
O922        O  0.28682416  0.95861770  0.32284840    -0.80600
O923        O  0.21366418  0.54502190  0.32922175    -0.80700
C924        C  0.18614768  0.53940086  0.34104162     1.09100
C925        C  0.31358494  0.96474632  0.33744671     1.08900
C926        C  0.31157135  0.53823174  0.33544320     1.09100
C927        C  0.17962362  0.96454365  0.33862013     1.09000
O928        O  0.21340130  0.95857546  0.42076567    -0.80600
O929        O  0.31647374  0.52493596  0.42589825    -0.80700
O930        O  0.22184030  0.56941307  0.39408811    -0.80700
O931        O  0.27215805  0.92830867  0.37327439    -0.80600
O932        O  0.29207765  0.95801836  0.41576445    -0.80700
O933        O  0.20949019  0.53282400  0.43194439    -0.80600
O934        O  0.22580536  0.92863565  0.37633025    -0.80600
O935        O  0.28492759  0.56079536  0.39720541    -0.80700
Co936      Co  0.21205420  0.49977885  0.39536249     1.51500
Co937      Co  0.28641068  0.50464469  0.39770823     1.51700
Co938      Co  0.25095779  0.55141235  0.36069330     1.51600
Co939      Co  0.24748997  0.96206811  0.34863987     1.51500
O940        O  0.24985065  0.50317439  0.37162309    -1.42600
C941        C  0.21611597  0.93092161  0.40609794     1.09000
C942        C  0.30635844  0.55417564  0.41982822     1.09100
C943        C  0.21235012  0.56259414  0.42289071     1.09000
C944        C  0.28710428  0.93029986  0.40106611     1.09000
O945        O  0.04365770  0.67116409  0.22079043    -0.80600
O946        O  0.45990116  0.65861297  0.29268720    -0.80700
O947        O  0.46288144  0.63956416  0.18870560    -0.80700
O948        O  0.02361774  0.61393950  0.32542819    -0.80600
O949        O  0.43361913  0.66822423  0.22565777    -0.80700
O950        O  0.03941278  0.65765395  0.29680771    -0.80700
O951        O  0.47701996  0.61647687  0.32360231    -0.80600
O952        O  0.02650930  0.63579444  0.18279083    -0.80700
C953        C  0.04038513  0.66233975  0.19049678     1.09100
C954        C  0.46440687  0.64470831  0.32102623     1.08900
C955        C  0.44215035  0.66222515  0.19570765     1.09100
C956        C  0.03651797  0.64225612  0.32432276     1.09000
O957        O  0.06813377  0.60694090  0.27639762    -0.80600
O958        O  0.43223960  0.60598170  0.23107869    -0.80700
O959        O  0.03453914  0.57110399  0.20400935    -0.80700
O960        O  0.45825163  0.56538143  0.29285486    -0.80600
O961        O  0.43232365  0.60897021  0.27047310    -0.80700
O962        O  0.06649474  0.61004964  0.22484001    -0.80600
O963        O  0.03893900  0.56322415  0.29019769    -0.80600
O964        O  0.46198226  0.56960086  0.20527356    -0.80700
Co965      Co  0.03757198  0.63517447  0.25307776     1.51500
Co966      Co  0.46352551  0.64019311  0.24611708     1.51700
Co967      Co  0.99645089  0.60281580  0.19895284     1.51600
Co968      Co  0.49885508  0.58992296  0.28983390     1.51500
O969        O  0.49853586  0.61317962  0.24829651    -1.42600
C970        C  0.06587832  0.57758388  0.28687612     1.09000
C971        C  0.43473397  0.57968467  0.21392016     1.09100
C972        C  0.06274775  0.58274403  0.20976117     1.09000
C973        C  0.43255911  0.58163605  0.28746523     1.09000
O974        O  0.01325536  0.87959572  0.17624756    -0.80600
O975        O  0.46626248  0.87079259  0.31401596    -0.80700
O976        O  0.05869807  0.83590095  0.28127318    -0.80700
O977        O  0.45708166  0.84015027  0.20297355    -0.80600
O978        O  0.02862064  0.86848796  0.31286340    -0.80700
O979        O  0.47705150  0.88079103  0.17210048    -0.80700
O980        O  0.45685555  0.83024642  0.27842516    -0.80600
O981        O  0.03905954  0.84388735  0.21043161    -0.80700
C982        C  0.03099296  0.85378053  0.18108056     1.09100
C983        C  0.45608035  0.84221636  0.30751768     1.08900
C984        C  0.04868861  0.84464327  0.30994971     1.09100
C985        C  0.46118392  0.85341908  0.17471344     1.09000
O986        O  0.44718521  0.92759457  0.20631251    -0.80600
O987        O  0.02951126  0.93726521  0.29013552    -0.80700
O988        O  0.06704939  0.88980720  0.23524360    -0.80700
O989        O  0.42920127  0.89235315  0.27098899    -0.80600
O990        O  0.45963681  0.93400323  0.28789027    -0.80700
O991        O  0.04125922  0.91806996  0.19563488    -0.80600
O992        O  0.42255742  0.88165471  0.21939848    -0.80600
O993        O  0.06214384  0.90020916  0.26952357    -0.80700
Co994      Co  0.99466722  0.91724593  0.20451011     1.51500
Co995      Co  0.99630567  0.90351794  0.29660855     1.51700
Co996      Co  0.03137712  0.86338909  0.25590799     1.51600
Co997      Co  0.45851768  0.86496004  0.24478252     1.51500
O998        O  0.99650858  0.89053030  0.24675111    -1.42600
C999        C  0.42194216  0.91043498  0.20797285     1.09000
C1000       C  0.05742099  0.92777124  0.28429055     1.09100
C1001       C  0.06699171  0.90771128  0.20879968     1.09000
C1002       C  0.43223519  0.92080945  0.28381310     1.09000
C1003       C  0.37279479  0.96708491  0.33565876    -0.21800
C1004       C  0.34394510  0.95374953  0.32335523    -0.09800
C1005       C  0.34483364  0.93067325  0.29760786     0.29000
C1006       C  0.37360070  0.92162905  0.28426384    -0.21800
C1007       C  0.40242665  0.93554937  0.29569073    -0.09900
C1008       C  0.40167165  0.95858056  0.32161477     0.29000
F1009       F  0.42870239  0.97186046  0.33429188    -0.20400
H1010       H  0.37305028  0.98483917  0.35576317     0.17400
H1011       H  0.37317669  0.90291969  0.26509141     0.17400
F1012       F  0.31808449  0.91605497  0.28587738    -0.20400
C1013       C  0.09337116  0.93931003  0.33172726    -0.21800
C1014       C  0.08561082  0.94503644  0.29821929    -0.09800
C1015       C  0.10876172  0.95867157  0.27787300     0.29000
C1016       C  0.13984615  0.96373218  0.29020656    -0.21800
C1017       C  0.14798927  0.95636721  0.32350578    -0.09900
C1018       C  0.12383956  0.94515622  0.34436388     0.29000
F1019       F  0.12980694  0.93895184  0.37708570    -0.20400
H1020       H  0.07614162  0.92848684  0.34788928     0.17400
H1021       H  0.15722557  0.97424610  0.27406692     0.17400
F1022       F  0.10109334  0.96761296  0.24631227    -0.20400
C1023       C  0.35247136  0.58138294  0.32828433    -0.21800
C1024       C  0.33956782  0.55124736  0.31791966    -0.09800
C1025       C  0.35699796  0.53182974  0.29605266     0.29000
C1026       C  0.38809171  0.54028286  0.28783677    -0.21800
C1027       C  0.40139004  0.56994901  0.29916121    -0.09900
C1028       C  0.38247935  0.59117781  0.31808343     0.29000
F1029       F  0.39325964  0.62129639  0.32722909    -0.20400
H1030       H  0.33948849  0.59714519  0.34489151     0.17400
H1031       H  0.40117011  0.52444340  0.27140628     0.17400
F1032       F  0.34357975  0.50502221  0.28218666    -0.20400
C1033       C  0.12819185  0.53184858  0.33524233    -0.21800
C1034       C  0.15621498  0.54555030  0.32268070    -0.09800
C1035       C  0.15400612  0.56713719  0.29590645     0.29000
C1036       C  0.12430887  0.57577769  0.28319296    -0.21800
C1037       C  0.09632346  0.56237115  0.29611193    -0.09900
C1038       C  0.09866054  0.53979501  0.32191960     0.29000
F1039       F  0.07249570  0.52800103  0.33653876    -0.20400
H1040       H  0.12881873  0.51568152  0.35653144     0.17400
H1041       H  0.12322202  0.59487500  0.26470552     0.17400
F1042       F  0.18002113  0.58204688  0.28400862    -0.20400
C1043       C  0.33658168  0.91427052  0.18032387    -0.21800
C1044       C  0.32754687  0.94568229  0.19049503    -0.09800
C1045       C  0.34944614  0.96490793  0.20831799     0.29000
C1046       C  0.38091829  0.95464900  0.21238110    -0.21800
C1047       C  0.39038562  0.92398641  0.20002878    -0.09900
C1048       C  0.36754785  0.90342358  0.18496907     0.29000
F1049       F  0.37547535  0.87314241  0.17365819    -0.20400
H1050       H  0.32001453  0.89880273  0.16695486     0.17400
H1051       H  0.39750249  0.97004992  0.22607298     0.17400
F1052       F  0.34010935  0.99355023  0.22170075    -0.20400
C1053       C  0.12638135  0.91362470  0.21092003    -0.21800
C1054       C  0.09739511  0.91672283  0.19332916    -0.09800
C1055       C  0.09768805  0.92887937  0.16063368     0.29000
C1056       C  0.12580002  0.93910305  0.14668954    -0.21800
C1057       C  0.15440309  0.93873792  0.16515619    -0.09900
C1058       C  0.15453017  0.92525789  0.19738084     0.29000
F1059       F  0.18153030  0.92391005  0.21606504    -0.20400
H1060       H  0.12705853  0.90361154  0.23584172     0.17400
H1061       H  0.12476200  0.94874324  0.12161454     0.17400
F1062       F  0.07075943  0.93108983  0.14189783    -0.20400
C1063       C  0.37231404  0.52974325  0.16689623    -0.21800
C1064       C  0.34403280  0.54324026  0.17921566    -0.09800
C1065       C  0.34615427  0.56582968  0.20537002     0.29000
C1066       C  0.37580547  0.57590420  0.21753987    -0.21800
C1067       C  0.40425867  0.56318460  0.20464288    -0.09900
C1068       C  0.40200531  0.53925132  0.17961708     0.29000
F1069       F  0.42832451  0.52644552  0.16603716    -0.20400
H1070       H  0.37145212  0.51186646  0.14689099     0.17400
H1071       H  0.37628693  0.59483853  0.23647797     0.17400
F1072       F  0.31977959  0.57968434  0.21778334    -0.20400
C1073       C  0.12791822  0.52115622  0.18519147    -0.21800
C1074       C  0.15529285  0.54105043  0.18650546    -0.09800
C1075       C  0.15123816  0.57412617  0.19477104     0.29000
C1076       C  0.12107752  0.58680799  0.20049238    -0.21800
C1077       C  0.09357645  0.56689508  0.20005560    -0.09900
C1078       C  0.09757643  0.53352199  0.19237959     0.29000
F1079       F  0.07235985  0.51311087  0.19102792    -0.20400
H1080       H  0.12982170  0.49592733  0.17723599     0.17400
H1081       H  0.11945059  0.61291384  0.20542429     0.17400
F1082       F  0.17615619  0.59498238  0.19446148    -0.20400
C1083       C  0.33829026  0.91822074  0.04040315    -0.21800
C1084       C  0.32102117  0.91732770  0.06983310    -0.09800
C1085       C  0.31648549  0.88693254  0.08561708     0.29000
C1086       C  0.32840494  0.85843809  0.07235396    -0.21800
C1087       C  0.34436622  0.85865713  0.04232846    -0.09900
C1088       C  0.34979313  0.88893653  0.02647268     0.29000
F1089       F  0.36487253  0.89013940  0.99708307    -0.20400
H1090       H  0.34182888  0.94123665  0.02764230     0.17400
H1091       H  0.32404324  0.83578365  0.08549121     0.17400
F1092       F  0.29945133  0.88405831  0.11358490    -0.20400
C1093       C  0.30132649  0.65130139  0.06752253    -0.21800
C1094       C  0.32613296  0.64765530  0.04556114    -0.09800
C1095       C  0.33447014  0.61578922  0.03485850     0.29000
C1096       C  0.31782197  0.58825245  0.04592268    -0.21800
C1097       C  0.29379810  0.59199726  0.06905123    -0.09900
C1098       C  0.28603332  0.62396913  0.07993763     0.29000
F1099       F  0.26420576  0.62895190  0.10363913    -0.20400
H1100       H  0.29477096  0.67539439  0.07654195     0.17400
H1101       H  0.32502804  0.56397409  0.03808120     0.17400
F1102       F  0.35889682  0.61116089  0.01412707    -0.20400
C1103       C  0.31537032  0.84220161  0.40768852    -0.21800
C1104       C  0.31240866  0.83555182  0.44164239    -0.09800
C1105       C  0.29989397  0.86007430  0.46227576     0.29000
C1106       C  0.29291761  0.89149251  0.44960769    -0.21800
C1107       C  0.29747485  0.89858840  0.41587186    -0.09900
C1108       C  0.30787942  0.87316329  0.39483525     0.29000
F1109       F  0.31179054  0.87854668  0.36185165    -0.20400
H1110       H  0.32545837  0.82395229  0.39136679     0.17400
H1111       H  0.28319936  0.90995119  0.46590800     0.17400
F1112       F  0.29389561  0.85343074  0.49448164    -0.20400
C1113       C  0.29697519  0.60326780  0.45289941    -0.21800
C1114       C  0.31865728  0.58256866  0.43710509    -0.09800
C1115       C  0.34767445  0.59467722  0.42745899     0.29000
C1116       C  0.35448964  0.62756459  0.43236815    -0.21800
C1117       C  0.33272425  0.64861209  0.44760377    -0.09900
C1118       C  0.30386856  0.63637796  0.45805728     0.29000
F1119       F  0.28311317  0.65594000  0.47401741    -0.20400
H1120       H  0.27420795  0.59390375  0.45990034     0.17400
H1121       H  0.37724124  0.63664698  0.42484566     0.17400
F1122       F  0.36838972  0.57525409  0.41124702    -0.20400
C1123       C  0.41605670  0.84497127  0.34968085    -0.21800
C1124       C  0.44016009  0.82660909  0.33488888    -0.09800
C1125       C  0.45550210  0.80189990  0.35308378     0.29000
C1126       C  0.44778376  0.79680185  0.38627119    -0.21800
C1127       C  0.42407163  0.81553529  0.40104226    -0.09900
C1128       C  0.40798635  0.83942290  0.38252699     0.29000
F1129       F  0.38494043  0.85767021  0.39644801    -0.20400
H1130       H  0.40483949  0.86505650  0.33631146     0.17400
H1131       H  0.46001773  0.77795147  0.40044145     0.17400
F1132       F  0.47900416  0.78414242  0.33937508    -0.20400
C1133       C  0.42900955  0.80887427  0.14830880    -0.21800
C1134       C  0.44821331  0.83658342  0.14446440    -0.09800
C1135       C  0.45149473  0.84941000  0.11219216     0.29000
C1136       C  0.43838739  0.83294290  0.08448720    -0.21800
C1137       C  0.41938871  0.80500305  0.08842199    -0.09900
C1138       C  0.41370033  0.79424824  0.12102291     0.29000
F1139       F  0.39207452  0.77083410  0.12715319    -0.20400
H1140       H  0.42429510  0.79938897  0.17283442     0.17400
H1141       H  0.44156047  0.84329386  0.06001124     0.17400
F1142       F  0.46545939  0.87885881  0.10736567    -0.20400
C1143       C  0.43916372  0.70938021  0.38283439    -0.21800
C1144       C  0.43865118  0.69173294  0.41279590    -0.09800
C1145       C  0.44685700  0.65841477  0.41247564     0.29000
C1146       C  0.45472682  0.64325024  0.38241940    -0.21800
C1147       C  0.45559597  0.66123563  0.35242633    -0.09900
C1148       C  0.44810721  0.69469096  0.35316360     0.29000
F1149       F  0.44812560  0.71303524  0.32506777    -0.20400
H1150       H  0.43033074  0.73418774  0.38191209     0.17400
H1151       H  0.45935435  0.61711030  0.38251353     0.17400
F1152       F  0.44430475  0.63989875  0.44030591    -0.20400
C1153       C  0.44086883  0.70521580  0.11371207    -0.21800
C1154       C  0.40859048  0.70739507  0.10661344    -0.09800
C1155       C  0.38688324  0.69835234  0.13108365     0.29000
C1156       C  0.39762645  0.68537662  0.16147463    -0.21800
C1157       C  0.42997150  0.68159352  0.16760808    -0.09900
C1158       C  0.45140586  0.69295341  0.14418639     0.29000
F1159       F  0.48269989  0.69201025  0.15095444    -0.20400
H1160       H  0.45791124  0.71288702  0.09563512     0.17400
H1161       H  0.38080876  0.67678127  0.17934412     0.17400
F1162       F  0.35536167  0.70049647  0.12495942    -0.20400
C1163       C  0.16844282  0.87333088  0.45552374    -0.21800
C1164       C  0.18213218  0.84261937  0.44864000    -0.09800
C1165       C  0.20868467  0.84120688  0.42860376     0.29000
C1166       C  0.22044121  0.87029174  0.41511172    -0.21800
C1167       C  0.20665281  0.90086008  0.42282497    -0.09900
C1168       C  0.18092563  0.90208352  0.44369415     0.29000
F1169       F  0.16589467  0.93077122  0.45022032    -0.20400
H1170       H  0.14687433  0.87522844  0.46922546     0.17400
H1171       H  0.23964344  0.86883795  0.39792734     0.17400
F1172       F  0.22145305  0.81195161  0.41989261    -0.20400
C1173       C  0.16549681  0.62117113  0.47638174    -0.21800
C1174       C  0.17884845  0.65168028  0.46740369    -0.09800
C1175       C  0.20548797  0.65157105  0.44757760     0.29000
C1176       C  0.21745659  0.62193213  0.43579526    -0.21800
C1177       C  0.20316346  0.59153732  0.44308920    -0.09900
C1178       C  0.17743085  0.59136453  0.46430834     0.29000
F1179       F  0.16225312  0.56295645  0.47111816    -0.20400
H1180       H  0.14488008  0.62038184  0.49176339     0.17400
H1181       H  0.23718770  0.62297897  0.41919304     0.17400
F1182       F  0.21879261  0.68008942  0.43771967    -0.20400
C1183       C  0.22915295  0.89103621  0.04321508    -0.21800
C1184       C  0.21097561  0.92007531  0.04479260    -0.09800
C1185       C  0.17880930  0.91826295  0.03699813     0.29000
C1186       C  0.16441775  0.88780451  0.03261821    -0.21800
C1187       C  0.18190666  0.85821538  0.03344620    -0.09900
C1188       C  0.21486178  0.86033660  0.03718344     0.29000
F1189       F  0.23295054  0.83285848  0.03733498    -0.20400
H1190       H  0.25399687  0.89176142  0.04993392     0.17400
H1191       H  0.13901286  0.88757111  0.02945472     0.17400
F1192       F  0.16039783  0.94546634  0.03887369    -0.20400
C1193       C  0.16879944  0.65240452  0.08617991    -0.21800
C1194       C  0.18468797  0.66812149  0.06053413    -0.09800
C1195       C  0.20892362  0.65116667  0.04439280     0.29000
C1196       C  0.21544598  0.61816958  0.05255597    -0.21800
C1197       C  0.19940805  0.60279628  0.07850725    -0.09900
C1198       C  0.17601298  0.62037107  0.09512137     0.29000
F1199       F  0.15946873  0.60613683  0.11973820    -0.20400
H1200       H  0.14936838  0.66455166  0.09827826     0.17400
H1201       H  0.23377117  0.60517432  0.03961340     0.17400
F1202       F  0.22561021  0.66609204  0.02038642    -0.20400
C1203       C  0.08606220  0.78387947  0.37014071    -0.21800
C1204       C  0.07285669  0.79293519  0.40079640    -0.09800
C1205       C  0.04999415  0.81777247  0.40076729     0.29000
C1206       C  0.04235672  0.83435698  0.37109788    -0.21800
C1207       C  0.05717359  0.82638967  0.34084565    -0.09900
C1208       C  0.07821123  0.79996252  0.34058248     0.29000
F1209       F  0.09225828  0.79033521  0.31214407    -0.20400
H1210       H  0.10451571  0.76579675  0.36921291     0.17400
H1211       H  0.02519114  0.85400134  0.37207693     0.17400
F1212       F  0.03689006  0.82778497  0.42957544    -0.20400
C1213       C  0.03484904  0.84726336  0.11856040    -0.21800
C1214       C  0.04313520  0.83626901  0.15091881    -0.09800
C1215       C  0.06530083  0.81064116  0.15369738     0.29000
C1216       C  0.07909249  0.79746411  0.12520019    -0.21800
C1217       C  0.07029884  0.80794217  0.09296292    -0.09900
C1218       C  0.04755471  0.83283261  0.08992294     0.29000
F1219       F  0.03969102  0.84523273  0.05956817    -0.20400
H1220       H  0.01963493  0.86822816  0.11533688     0.17400
H1221       H  0.09785031  0.77983860  0.12843588     0.17400
F1222       F  0.07520363  0.79948642  0.18394120    -0.20400
C1223       C  0.07377865  0.67928584  0.35285661    -0.21800
C1224       C  0.04919121  0.65694438  0.35534142    -0.09800
C1225       C  0.03910641  0.64768319  0.38726221     0.29000
C1226       C  0.05110036  0.66376934  0.41581722    -0.21800
C1227       C  0.07532294  0.68689911  0.41295724    -0.09900
C1228       C  0.08767847  0.69279303  0.38111451     0.29000
F1229       F  0.11435391  0.71040564  0.37693299    -0.20400
H1230       H  0.08353053  0.68513363  0.32890481     0.17400
H1231       H  0.04263614  0.65703120  0.44007403     0.17400
F1232       F  0.01870849  0.62249400  0.39103403    -0.20400
C1233       C  0.04186617  0.67201043  0.12986249    -0.21800
C1234       C  0.05363779  0.68017379  0.16199120    -0.09800
C1235       C  0.07979112  0.70101727  0.16483991     0.29000
C1236       C  0.09338450  0.71344577  0.13600194    -0.21800
C1237       C  0.08032959  0.70641259  0.10407555    -0.09900
C1238       C  0.05456819  0.68519582  0.10143226     0.29000
F1239       F  0.04254993  0.67561997  0.07135720    -0.20400
H1240       H  0.02269513  0.65472419  0.12640766     0.17400
H1241       H  0.11455966  0.72805943  0.13871583     0.17400
F1242       F  0.09331311  0.70773583  0.19500306    -0.20400
O1243       O  0.08063229  0.71708625  0.54503688    -0.80600
O1244       O  0.07722773  0.78254462  0.96187416    -0.80700
O1245       O  0.11888572  0.79444038  0.56909893    -0.80700
O1246       O  0.11977361  0.71302101  0.93764819    -0.80600
O1247       O  0.07751864  0.79252230  0.53458618    -0.80700
O1248       O  0.07966811  0.70444850  0.97012521    -0.80700
O1249       O  0.11759455  0.77499431  0.92865365    -0.80600
O1250       O  0.12174448  0.73159662  0.57647622    -0.80700
C1251       C  0.09405112  0.71990574  0.57342143     1.09100
C1252       C  0.08866065  0.78160460  0.93268616     1.08900
C1253       C  0.08927653  0.79705045  0.56394249     1.09100
C1254       C  0.09232017  0.70197923  0.94182995     1.09000
O1255       O  0.13675201  0.68069337  0.98656317    -0.80600
O1256       O  0.13464937  0.82885363  0.52578001    -0.80700
O1257       O  0.17823704  0.72400628  0.54103310    -0.80700
O1258       O  0.17615644  0.78631733  0.96353533    -0.80600
O1259       O  0.13418905  0.81905597  0.96227515    -0.80700
O1260       O  0.13761981  0.68932605  0.53648387    -0.81800
O1261       O  0.17674896  0.71299142  0.97313934    -0.80600
O1262       O  0.17685240  0.79757728  0.53270107    -0.80700
Co1263     Co  0.10863871  0.71578493  0.50726284     1.51500
Co1264     Co  0.10593046  0.80202558  0.99678614     1.51700
Co1265     Co  0.14891303  0.76180097  0.54994643     1.51600
Co1266     Co  0.14766048  0.74819080  0.95569138     1.51500
O1267       O  0.12819851  0.75818762  0.50222464    -1.42600
C1268       C  0.16474557  0.68405183  0.97590187     1.09000
C1269       C  0.16428567  0.82615627  0.53046409     1.09100
C1270       C  0.16628376  0.69530270  0.54501462     1.09000
C1271       C  0.16355560  0.81449184  0.95867324     1.09000
O1272       O  0.37362622  0.73416863  0.57070888    -0.80600
O1273       O  0.39009450  0.78035874  0.92862658    -0.80700
O1274       O  0.42938180  0.70486844  0.97295927    -0.80700
O1275       O  0.41376629  0.79567588  0.52978073    -0.80600
O1276       O  0.39406149  0.71505971  0.93259308    -0.80700
O1277       O  0.37778047  0.77299043  0.56354746    -0.80700
O1278       O  0.42143471  0.81341027  0.96022261    -0.80600
O1279       O  0.41494944  0.71031512  0.54580722    -0.80700
C1280       C  0.39965328  0.71716384  0.57188505     1.09100
C1281       C  0.41186341  0.80257107  0.93182638     1.08900
C1282       C  0.42105530  0.70482622  0.94233054     1.09100
C1283       C  0.40344491  0.78964389  0.55889898     1.09000
O1284       O  0.34322048  0.80007625  0.54325631    -0.80600
O1285       O  0.33178333  0.70653807  0.95584480    -0.80700
O1286       O  0.37265887  0.67435111  0.52600632    -0.80700
O1287       O  0.35842845  0.81458519  0.96888477    -0.80600
O1288       O  0.32441709  0.77741579  0.94982646    -0.80700
O1289       O  0.32955528  0.70416310  0.53262884    -0.80600
O1290       O  0.36930887  0.82397939  0.50252383    -0.80600
O1291       O  0.37222123  0.67695576  0.97559867    -0.80700
Co1292     Co  0.34212545  0.75195592  0.53482720     1.51500
Co1293     Co  0.35922644  0.74506079  0.94593505     1.51700
Co1294     Co  0.39411466  0.70968693  0.50189953     1.51600
Co1295     Co  0.39547454  0.78532520  0.98458469     1.51500
O1296       O  0.37010631  0.74963082  0.49531507    -1.42600
C1297       C  0.35277088  0.82580161  0.52892765     1.09000
C1298       C  0.34560801  0.67899229  0.96079792     1.09100
C1299       C  0.34410209  0.67673469  0.53419888     1.09000
C1300       C  0.33181395  0.80723686  0.95491783     1.09000
O1301       O  0.21317614  0.53225645  0.67981822    -0.80600
O1302       O  0.27465138  0.95956985  0.67797054    -0.80700
O1303       O  0.18074273  0.96591477  0.62200226    -0.80700
O1304       O  0.31629355  0.52662604  0.63132218    -0.80600
O1305       O  0.20999504  0.95636667  0.66662891    -0.80700
O1306       O  0.28701682  0.53284086  0.67639131    -0.80700
O1307       O  0.30992623  0.97283874  0.64290975    -0.80600
O1308       O  0.17975593  0.52794232  0.63586284    -0.80700
C1309       C  0.18477328  0.53199799  0.66708164     1.09100
C1310       C  0.30306879  0.96104489  0.67055134     1.08900
C1311       C  0.18342659  0.95509231  0.65157630     1.09100
C1312       C  0.31407955  0.53402466  0.66203045     1.09000
O1313       O  0.27703337  0.56806063  0.61733856    -0.80600
O1314       O  0.22288501  0.93464992  0.59995546    -0.80700
O1315       O  0.21502433  0.54476665  0.57646921    -0.80700
O1316       O  0.31591501  0.97536044  0.57841657    -0.80600
O1317       O  0.28275530  0.94139263  0.60431312    -0.80700
O1318       O  0.21556508  0.57177149  0.62370482    -0.80600
O1319       O  0.27843418  0.53442162  0.57366605    -0.80600
O1320       O  0.21988426  0.97530166  0.56423409    -0.80700
Co1321     Co  0.24814958  0.54710207  0.64962399     1.51500
Co1322     Co  0.24739806  0.95256025  0.63798343     1.51700
Co1323     Co  0.20265298  0.50365130  0.60021496     1.51600
Co1324     Co  0.28665220  0.49802570  0.60564104     1.51500
O1325       O  0.24498867  0.50223011  0.62637939    -1.42600
C1326       C  0.28200544  0.56305923  0.58654806     1.09000
C1327       C  0.22040246  0.94466228  0.57037570     1.09100
C1328       C  0.21123498  0.57134318  0.59248970     1.09000
C1329       C  0.30561080  0.94625069  0.58387936     1.09000
O1330       O  0.18299454  0.52920630  0.87068859    -0.80600
O1331       O  0.31550753  0.98028225  0.86511945    -0.80700
O1332       O  0.28351393  0.54281164  0.82567483    -0.80700
O1333       O  0.20545612  0.96197501  0.82298861    -0.80600
O1334       O  0.31630825  0.51900752  0.86189108    -0.80700
O1335       O  0.17917404  0.97655046  0.86875556    -0.80700
O1336       O  0.28655953  0.95721670  0.82321379    -0.80600
O1337       O  0.21389951  0.54502596  0.82927923    -0.80700
C1338       C  0.18635294  0.54030659  0.84144885     1.09100
C1339       C  0.31336398  0.96284295  0.83794386     1.08900
C1340       C  0.31142562  0.53561690  0.83519263     1.09100
C1341       C  0.17935901  0.96560650  0.83875143     1.09000
O1342       O  0.21273582  0.95967007  0.92120049    -0.80600
O1343       O  0.31678958  0.52416297  0.92570100    -0.80700
O1344       O  0.22322303  0.57022998  0.89359892    -0.80700
O1345       O  0.27104468  0.92760637  0.87362922    -0.80600
O1346       O  0.29191194  0.95701879  0.91585636    -0.80700
O1347       O  0.21098671  0.53423617  0.93202601    -0.80600
O1348       O  0.22483853  0.92938739  0.87685689    -0.80600
O1349       O  0.28600252  0.56027927  0.89646041    -0.80700
Co1350     Co  0.21207512  0.50071254  0.89567707     1.51500
Co1351     Co  0.28629935  0.50371195  0.89798873     1.51700
Co1352     Co  0.25163839  0.55101254  0.86028545     1.51600
Co1353     Co  0.24712869  0.96191389  0.84885682     1.51500
O1354       O  0.24979627  0.50297732  0.87183926    -1.42600
C1355       C  0.21521598  0.93194960  0.90661673     1.09000
C1356       C  0.30733413  0.55354645  0.91915267     1.09100
C1357       C  0.21429262  0.56389021  0.92270471     1.09000
C1358       C  0.28636228  0.92937782  0.90123060     1.09000
O1359       O  0.04273891  0.67079910  0.71837462    -0.80600
O1360       O  0.46126111  0.66052734  0.79569666    -0.80700
O1361       O  0.46454732  0.63326523  0.68136564    -0.80700
O1362       O  0.02391794  0.61495975  0.82398158    -0.80600
O1363       O  0.45234786  0.67024181  0.72030524    -0.80700
O1364       O  0.03960168  0.65909942  0.79595285    -0.80700
O1365       O  0.47735781  0.61665404  0.82411705    -0.80600
O1366       O  0.02782613  0.63300892  0.68113029    -0.80700
C1367       C  0.04048427  0.66049724  0.68843636     1.09100
C1368       C  0.46582134  0.64566614  0.82333365     1.08900
C1369       C  0.45291385  0.66102797  0.69011713     1.09100
C1370       C  0.03699496  0.64322223  0.82326496     1.09000
O1371       O  0.06817774  0.60831415  0.77579594    -0.80600
O1372       O  0.42992584  0.60849481  0.72656395    -0.80700
O1373       O  0.03577847  0.56996493  0.70729130    -0.80700
O1374       O  0.45861311  0.56449741  0.79083134    -0.80600
O1375       O  0.42948430  0.60911057  0.77888795    -0.80700
O1376       O  0.06713360  0.61076640  0.72493672    -0.80600
O1377       O  0.03923930  0.56442072  0.78929692    -0.80600
O1378       O  0.46207494  0.56875722  0.70903322    -0.80700
Co1379     Co  0.03755946  0.63657052  0.75213979     1.51500
Co1380     Co  0.45940259  0.63587147  0.75316491     1.51700
Co1381     Co  0.99747507  0.60045089  0.69840079     1.51600
Co1382     Co  0.49902374  0.59102555  0.78824506     1.51500
O1383       O  0.49845929  0.61529874  0.74625998    -1.42600
C1384       C  0.06611114  0.57903868  0.78660481     1.09000
C1385       C  0.43405342  0.58005699  0.71411459     1.09100
C1386       C  0.06379134  0.58259855  0.71139931     1.09000
C1387       C  0.43187711  0.57983602  0.78998572     1.09000
O1388       O  0.01397142  0.87844265  0.67722327    -0.80600
O1389       O  0.46791967  0.86852226  0.81454590    -0.80700
O1390       O  0.06076827  0.83609780  0.78242502    -0.80700
O1391       O  0.45782468  0.83895619  0.70324342    -0.80600
O1392       O  0.03017395  0.86850889  0.81359448    -0.80700
O1393       O  0.47780545  0.87983231  0.67268453    -0.80700
O1394       O  0.45890099  0.82823259  0.77849950    -0.80600
O1395       O  0.04053390  0.84329246  0.71137716    -0.80700
C1396       C  0.03195535  0.85283978  0.68203850     1.09100
C1397       C  0.45840327  0.83973192  0.80779966     1.08900
C1398       C  0.05080103  0.84518303  0.81101468     1.09100
C1399       C  0.46183574  0.85247983  0.67508529     1.09000
O1400       O  0.44810709  0.92649018  0.70747048    -0.80600
O1401       O  0.02919758  0.93706125  0.79070762    -0.80700
O1402       O  0.06806560  0.88998066  0.73637146    -0.80700
O1403       O  0.42963693  0.88954780  0.77212353    -0.80600
O1404       O  0.45942423  0.93182973  0.78861969    -0.80700
O1405       O  0.04209957  0.91719469  0.69614220    -0.80600
O1406       O  0.42344028  0.88048363  0.72028640    -0.80600
O1407       O  0.06265245  0.90064054  0.77035933    -0.80700
Co1408     Co  0.99552814  0.91616672  0.70532273     1.51500
Co1409     Co  0.99690340  0.90237984  0.79726888     1.51700
Co1410     Co  0.03279910  0.86290890  0.75685437     1.51600
Co1411     Co  0.45955353  0.86339975  0.74529226     1.51500
O1412       O  0.99739982  0.88934957  0.74746006    -1.42600
C1413       C  0.42286105  0.90935277  0.70907310     1.09000
C1414       C  0.05731906  0.92817390  0.78496144     1.09100
C1415       C  0.06790855  0.90749755  0.70967683     1.09000
C1416       C  0.43223894  0.91808525  0.78488550     1.09000
C1417       C  0.37259932  0.96479782  0.83618191    -0.21800
C1418       C  0.34372404  0.95143510  0.82399763    -0.09800
C1419       C  0.34464823  0.92791490  0.79862763     0.29000
C1420       C  0.37348105  0.91851934  0.78551282    -0.21800
C1421       C  0.40229497  0.93257244  0.79679476    -0.09900
C1422       C  0.40148728  0.95601777  0.82233177     0.29000
F1423       F  0.42849462  0.96957508  0.83474905    -0.20400
H1424       H  0.37286984  0.98287307  0.85598970     0.17400
H1425       H  0.37313258  0.89961517  0.76652521     0.17400
F1426       F  0.31786994  0.91323602  0.78706962    -0.20400
C1427       C  0.09333517  0.93968941  0.83229588    -0.21800
C1428       C  0.08515351  0.94598098  0.79898625    -0.09800
C1429       C  0.10788842  0.96044447  0.77869154     0.29000
C1430       C  0.13906829  0.96556106  0.79076233    -0.21800
C1431       C  0.14765879  0.95750394  0.82378851    -0.09900
C1432       C  0.12385681  0.94567167  0.84470598     0.29000
F1433       F  0.13027243  0.93892290  0.87723154    -0.20400
H1434       H  0.07643456  0.92824928  0.84841561     0.17400
H1435       H  0.15616943  0.97661948  0.77466037     0.17400
F1436       F  0.09978837  0.96985955  0.74736126    -0.20400
C1437       C  0.35288083  0.57733186  0.83095187    -0.21800
C1438       C  0.33953746  0.54836888  0.81838987    -0.09800
C1439       C  0.35708887  0.52919104  0.79642865     0.29000
C1440       C  0.38845243  0.53743315  0.78914273    -0.21800
C1441       C  0.40204894  0.56613026  0.80249948    -0.09900
C1442       C  0.38338089  0.58651221  0.82263263     0.29000
F1443       F  0.39464903  0.61567660  0.83418466    -0.20400
H1444       H  0.33985100  0.59257122  0.84801583     0.17400
H1445       H  0.40143527  0.52239597  0.77188962     0.17400
F1446       F  0.34364759  0.50269172  0.78195144    -0.20400
C1447       C  0.12831213  0.53307151  0.83546724    -0.21800
C1448       C  0.15643260  0.54683166  0.82319960    -0.09800
C1449       C  0.15434845  0.56904791  0.79698660     0.29000
C1450       C  0.12471059  0.57821753  0.78456325    -0.21800
C1451       C  0.09662393  0.56422639  0.79659581    -0.09900
C1452       C  0.09882676  0.54113999  0.82197731     0.29000
F1453       F  0.07256947  0.52886041  0.83600292    -0.20400
H1454       H  0.12885862  0.51662414  0.85653027     0.17400
H1455       H  0.12378202  0.59808949  0.76697733     0.17400
F1456       F  0.18045142  0.58408839  0.78545914    -0.20400
C1457       C  0.33851768  0.91414115  0.67800261    -0.21800
C1458       C  0.32884616  0.94494525  0.68946467    -0.09800
C1459       C  0.35009336  0.96358174  0.70877353     0.29000
C1460       C  0.38141460  0.95314916  0.71384202    -0.21800
C1461       C  0.39141011  0.92297298  0.70075076    -0.09900
C1462       C  0.36929715  0.90309087  0.68368572     0.29000
F1463       F  0.37786216  0.87342947  0.67127951    -0.20400
H1464       H  0.32268269  0.89938211  0.66287781     0.17400
H1465       H  0.39751536  0.96813073  0.72863173     0.17400
F1466       F  0.34042853  0.99210842  0.72212047    -0.20400
C1467       C  0.12699385  0.91597829  0.71297194    -0.21800
C1468       C  0.09831354  0.91706784  0.69455967    -0.09800
C1469       C  0.09889226  0.92778649  0.66138465     0.29000
C1470       C  0.12696116  0.93834723  0.64759622    -0.21800
C1471       C  0.15516263  0.93996599  0.66670469    -0.09900
C1472       C  0.15499966  0.92819735  0.69960603     0.29000
F1473       F  0.18152708  0.92910648  0.71908067    -0.20400
H1474       H  0.12747909  0.90705415  0.73831376     0.17400
H1475       H  0.12617091  0.94661364  0.62201608     0.17400
F1476       F  0.07230210  0.92807105  0.64197709    -0.20400
C1477       C  0.37289935  0.52896263  0.66693940    -0.21800
C1478       C  0.34446579  0.54205361  0.67935433    -0.09800
C1479       C  0.34623803  0.56388217  0.70616360     0.29000
C1480       C  0.37568917  0.57396571  0.71868426    -0.21800
C1481       C  0.40425509  0.56236309  0.70515221    -0.09900
C1482       C  0.40245718  0.53868424  0.67986669     0.29000
F1483       F  0.42900712  0.52662829  0.66609010    -0.20400
H1484       H  0.37226053  0.51146573  0.64658732     0.17400
H1485       H  0.37598714  0.59222806  0.73830838     0.17400
F1486       F  0.31970112  0.57709248  0.71887791    -0.20400
C1487       C  0.12807212  0.52207511  0.68225892    -0.21800
C1488       C  0.15589623  0.54108863  0.68588077    -0.09800
C1489       C  0.15252387  0.57332688  0.69723481     0.29000
C1490       C  0.12255858  0.58606954  0.70385156    -0.21800
C1491       C  0.09467249  0.56676007  0.70174073    -0.09900
C1492       C  0.09800690  0.53423992  0.69071197     0.29000
F1493       F  0.07232197  0.51475165  0.68660041    -0.20400
H1494       H  0.12936069  0.49800785  0.67115229     0.17400
H1495       H  0.12141615  0.61180270  0.71057960     0.17400
F1496       F  0.17786149  0.59362588  0.69888800    -0.20400
C1497       C  0.33870234  0.91745388  0.54127861    -0.21800
C1498       C  0.32018894  0.91660468  0.56979929    -0.09800
C1499       C  0.31426104  0.88613180  0.58495359     0.29000
C1500       C  0.32612551  0.85753724  0.57190635    -0.21800
C1501       C  0.34359547  0.85781061  0.54287810    -0.09900
C1502       C  0.35024615  0.88812208  0.52762871     0.29000
F1503       F  0.36679155  0.88937906  0.49915519    -0.20400
H1504       H  0.34336475  0.94053195  0.52906592     0.17400
H1505       H  0.32062098  0.83482117  0.58441688     0.17400
F1506       F  0.29597604  0.88327822  0.61205294    -0.20400
C1507       C  0.30225782  0.65074322  0.56676853    -0.21800
C1508       C  0.32681609  0.64708275  0.54448221    -0.09800
C1509       C  0.33480451  0.61525387  0.53342187     0.29000
C1510       C  0.31823941  0.58772901  0.54469313    -0.21800
C1511       C  0.29457688  0.59148901  0.56824711    -0.09900
C1512       C  0.28695199  0.62345394  0.57922723     0.29000
F1513       F  0.26523461  0.62846309  0.60304200    -0.20400
H1514       H  0.29587583  0.67482291  0.57596543     0.17400
H1515       H  0.32522413  0.56345088  0.53663302     0.17400
F1516       F  0.35878679  0.61066411  0.51212431    -0.20400
C1517       C  0.31513312  0.84140214  0.90733694    -0.21800
C1518       C  0.31266276  0.83471213  0.94133544    -0.09800
C1519       C  0.30003124  0.85904897  0.96211708     0.29000
C1520       C  0.29261120  0.89039946  0.94956224    -0.21800
C1521       C  0.29680453  0.89759341  0.91579664    -0.09900
C1522       C  0.30722193  0.87231181  0.89460180     0.29000
F1523       F  0.31084778  0.87783201  0.86160106    -0.20400
H1524       H  0.32516390  0.82324747  0.89087200     0.17400
H1525       H  0.28290360  0.90874709  0.96599792     0.17400
F1526       F  0.29435693  0.85229496  0.99436973    -0.20400
C1527       C  0.29793100  0.60222976  0.95284525    -0.21800
C1528       C  0.31964662  0.58190980  0.93660277    -0.09800
C1529       C  0.34863019  0.59435097  0.92719555     0.29000
C1530       C  0.35539295  0.62717026  0.93290392    -0.21800
C1531       C  0.33354270  0.64783522  0.94851851    -0.09900
C1532       C  0.30475037  0.63524256  0.95875124     0.29000
F1533       F  0.28395798  0.65435355  0.97519627    -0.20400
H1534       H  0.27516214  0.59269071  0.95962307     0.17400
H1535       H  0.37810921  0.63651770  0.92559020     0.17400
F1536       F  0.36942301  0.57534194  0.91061981    -0.20400
C1537       C  0.41687312  0.84027763  0.84813182    -0.21800
C1538       C  0.44282145  0.82353190  0.83502870    -0.09800
C1539       C  0.45959818  0.80111424  0.85494327     0.29000
C1540       C  0.45108753  0.79653221  0.88800962    -0.21800
C1541       C  0.42548149  0.81376980  0.90106776    -0.09900
C1542       C  0.40827692  0.83547316  0.88092118     0.29000
F1543       F  0.38364792  0.85251242  0.89327962    -0.20400
H1544       H  0.40459044  0.85882696  0.83353268     0.17400
H1545       H  0.46412163  0.77915196  0.90333057     0.17400
F1546       F  0.48504704  0.78511712  0.84296103    -0.20400
C1547       C  0.43046026  0.80745574  0.64826886    -0.21800
C1548       C  0.44867466  0.83593648  0.64470440    -0.09800
C1549       C  0.45074854  0.84970921  0.61268225     0.29000
C1550       C  0.43768454  0.83340154  0.58483808    -0.21800
C1551       C  0.41980375  0.80462989  0.58847290    -0.09900
C1552       C  0.41507646  0.79294035  0.62094576     0.29000
F1553       F  0.39432903  0.76862893  0.62696426    -0.20400
H1554       H  0.42660439  0.79718167  0.67265198     0.17400
H1555       H  0.43996565  0.84446034  0.56055040     0.17400
F1556       F  0.46352206  0.87983489  0.60830327    -0.20400
C1557       C  0.44176170  0.70940243  0.88633060    -0.21800
C1558       C  0.44037936  0.69113760  0.91579021    -0.09800
C1559       C  0.44808568  0.65767472  0.91494474     0.29000
C1560       C  0.45629384  0.64297766  0.88473861    -0.21800
C1561       C  0.45785277  0.66159159  0.85523497    -0.09900
C1562       C  0.45072432  0.69513396  0.85653613     0.29000
F1563       F  0.45067664  0.71393314  0.82874216    -0.20400
H1564       H  0.43330890  0.73436705  0.88581607     0.17400
H1565       H  0.46041856  0.61674933  0.88424214     0.17400
F1566       F  0.44464464  0.63865059  0.94228750    -0.20400
C1567       C  0.44499866  0.70822681  0.61076921    -0.21800
C1568       C  0.41249986  0.70676875  0.60444945    -0.09800
C1569       C  0.39262490  0.69436391  0.62909094     0.29000
C1570       C  0.40566173  0.68123248  0.65849775    -0.21800
C1571       C  0.43840701  0.68133860  0.66388464    -0.09900
C1572       C  0.45768105  0.69627794  0.64058823     0.29000
F1573       F  0.48887443  0.69923719  0.64680563    -0.20400
H1574       H  0.46055963  0.71861893  0.59258858     0.17400
H1575       H  0.39042142  0.66967849  0.67626828     0.17400
F1576       F  0.36090768  0.69325142  0.62392709    -0.20400
C1577       C  0.16765145  0.87432733  0.95610584    -0.21800
C1578       C  0.18106789  0.84365804  0.94855007    -0.09800
C1579       C  0.20727312  0.84228592  0.92805323     0.29000
C1580       C  0.21912398  0.87141256  0.91492758    -0.21800
C1581       C  0.20573071  0.90197097  0.92334575    -0.09900
C1582       C  0.18030761  0.90317045  0.94463011     0.29000
F1583       F  0.16577743  0.93194604  0.95194264    -0.20400
H1584       H  0.14627907  0.87609535  0.97016074     0.17400
H1585       H  0.23805637  0.86999733  0.89740322     0.17400
F1586       F  0.21951828  0.81305427  0.91846896    -0.20400
C1587       C  0.16970021  0.62273390  0.97790500    -0.21800
C1588       C  0.18168251  0.65331219  0.96728022    -0.09800
C1589       C  0.20725875  0.65337813  0.94594296     0.29000
C1590       C  0.21921684  0.62370938  0.93409520    -0.21800
C1591       C  0.20589161  0.59318175  0.94284677    -0.09900
C1592       C  0.18166312  0.59295110  0.96590457     0.29000
F1593       F  0.16788177  0.56436245  0.97478685    -0.20400
H1594       H  0.15010522  0.62183130  0.99468644     0.17400
H1595       H  0.23806540  0.62477550  0.91638903     0.17400
F1596       F  0.21929082  0.68197998  0.93461471    -0.20400
C1597       C  0.22937387  0.88988594  0.54555890    -0.21800
C1598       C  0.21151306  0.91917503  0.54597396    -0.09800
C1599       C  0.17968682  0.91775257  0.53661407     0.29000
C1600       C  0.16512532  0.88744532  0.53171424    -0.21800
C1601       C  0.18222051  0.85763536  0.53364410    -0.09900
C1602       C  0.21499774  0.85933752  0.53909867     0.29000
F1603       F  0.23269872  0.83161221  0.54067332    -0.20400
H1604       H  0.25390234  0.89034477  0.55345148     0.17400
H1605       H  0.13985685  0.88751159  0.52734208     0.17400
F1606       F  0.16157262  0.94523698  0.53726316    -0.20400
C1607       C  0.16711179  0.65036693  0.58453740    -0.21800
C1608       C  0.18319515  0.66705880  0.55964721    -0.09800
C1609       C  0.20816326  0.65107535  0.54373241     0.29000
C1610       C  0.21563159  0.61824676  0.55176507    -0.21800
C1611       C  0.19954013  0.60200822  0.57715142    -0.09900
C1612       C  0.17512535  0.61847078  0.59324686     0.29000
F1613       F  0.15858191  0.60335022  0.61733255    -0.20400
H1614       H  0.14713252  0.66173587  0.59640862     0.17400
H1615       H  0.23463102  0.60604820  0.53913070     0.17400
F1616       F  0.22463894  0.66675377  0.52004718    -0.20400
C1617       C  0.07999365  0.78022682  0.87165902    -0.21800
C1618       C  0.07163922  0.79357469  0.90259963    -0.09800
C1619       C  0.05540302  0.82351028  0.90297539     0.29000
C1620       C  0.04946036  0.84034530  0.87313292    -0.21800
C1621       C  0.05944661  0.82766157  0.84226386    -0.09900
C1622       C  0.07399703  0.79679876  0.84186027     0.29000
F1623       F  0.08285880  0.78269728  0.81288623    -0.20400
H1624       H  0.09315582  0.75776350  0.87065372     0.17400
H1625       H  0.03749230  0.86378818  0.87437855     0.17400
F1626       F  0.04770961  0.83784870  0.93222310    -0.20400
C1627       C  0.03338634  0.84462658  0.61950872    -0.21800
C1628       C  0.04375705  0.83519894  0.65176779    -0.09800
C1629       C  0.06756358  0.81121232  0.65415041     0.29000
C1630       C  0.08099311  0.79828866  0.62533410    -0.21800
C1631       C  0.07037256  0.80742066  0.59317838    -0.09900
C1632       C  0.04584330  0.83043895  0.59060747     0.29000
F1633       F  0.03580467  0.84137271  0.56033685    -0.20400
H1634       H  0.01661023  0.86424607  0.61648758     0.17400
H1635       H  0.10095102  0.78205595  0.62822964     0.17400
F1636       F  0.07946061  0.80165778  0.68420967    -0.20400
C1637       C  0.07607199  0.67808429  0.85223794    -0.21800
C1638       C  0.05046594  0.65696781  0.85445285    -0.09800
C1639       C  0.04032687  0.64756478  0.88631710     0.29000
C1640       C  0.05265611  0.66312555  0.91502973    -0.21800
C1641       C  0.07755283  0.68549613  0.91244643    -0.09900
C1642       C  0.09055010  0.69066142  0.88071000     0.29000
F1643       F  0.11801464  0.70710015  0.87677348    -0.20400
H1644       H  0.08605108  0.68366282  0.82832937     0.17400
H1645       H  0.04379011  0.65664084  0.93918907     0.17400
F1646       F  0.01958194  0.62267470  0.88988337    -0.20400
C1647       C  0.04284481  0.66942738  0.62800917    -0.21800
C1648       C  0.05387690  0.67808791  0.66018716    -0.09800
C1649       C  0.07895973  0.70021449  0.66366832     0.29000
C1650       C  0.09209496  0.71373691  0.63522866    -0.21800
C1651       C  0.07947762  0.70649414  0.60322635    -0.09900
C1652       C  0.05485857  0.68390423  0.59997382     0.29000
F1653       F  0.04328725  0.67442597  0.56968700    -0.20400
H1654       H  0.02421822  0.65152640  0.62434735     0.17400
H1655       H  0.11259668  0.72927391  0.63829405     0.17400
F1656       F  0.09189361  0.70723560  0.69405091    -0.20400
O1657       O  0.58200813  0.21569470  0.04543310    -0.80600
O1658       O  0.57715290  0.28307135  0.46085791    -0.80700
O1659       O  0.61909306  0.29423483  0.06972964    -0.80700
O1660       O  0.61827430  0.21293426  0.43788403    -0.80600
O1661       O  0.57789110  0.29189250  0.03505600    -0.80700
O1662       O  0.57795400  0.20564276  0.47039429    -0.80700
O1663       O  0.61786841  0.27477080  0.42835085    -0.80600
O1664       O  0.62271163  0.23131738  0.07692634    -0.80700
C1665       C  0.59521439  0.21908776  0.07392753     1.09100
C1666       C  0.58893879  0.28170114  0.43178684     1.08900
C1667       C  0.58950409  0.29681725  0.06434186     1.09100
C1668       C  0.59050679  0.20276655  0.44212549     1.09000
O1669       O  0.63442567  0.18018389  0.48665608    -0.80600
O1670       O  0.63460191  0.32892635  0.02635876    -0.80700
O1671       O  0.67933115  0.22471247  0.04133416    -0.80700
O1672       O  0.67630947  0.28514554  0.46328793    -0.80600
O1673       O  0.63474636  0.31852150  0.46186663    -0.80700
O1674       O  0.63928030  0.18937069  0.03649467    -0.81800
O1675       O  0.67516030  0.21151647  0.47335541    -0.80600
O1676       O  0.67710271  0.29811018  0.03307779    -0.80700
Co1677     Co  0.60995110  0.21540170  0.00732275     1.51500
Co1678     Co  0.60594764  0.30218429  0.49618779     1.51700
Co1679     Co  0.64950539  0.26199893  0.05033234     1.51600
Co1680     Co  0.64706557  0.24745961  0.45563933     1.51500
O1681       O  0.62881491  0.25826233  0.00250965    -1.42600
C1682       C  0.66248747  0.18284931  0.47600294     1.09000
C1683       C  0.66428091  0.32655372  0.03084663     1.09100
C1684       C  0.66777215  0.19585234  0.04529119     1.09000
C1685       C  0.66408636  0.31353680  0.45835497     1.09000
O1686       O  0.87183542  0.23556916  0.07123600    -0.80600
O1687       O  0.88926280  0.28161418  0.42837841    -0.80700
O1688       O  0.92893346  0.20518602  0.47027461    -0.80700
O1689       O  0.91361986  0.29550844  0.02985590    -0.80600
O1690       O  0.89310530  0.21627082  0.43073588    -0.80700
O1691       O  0.87685679  0.27383496  0.06340407    -0.80700
O1692       O  0.92065786  0.31441056  0.46021958    -0.80600
O1693       O  0.91352968  0.21069873  0.04807198    -0.80700
C1694       C  0.89745086  0.21803157  0.07349626     1.09100
C1695       C  0.91090429  0.30393513  0.43174354     1.08900
C1696       C  0.92012421  0.20561318  0.43977510     1.09100
C1697       C  0.90283879  0.29003608  0.05887858     1.09000
O1698       O  0.84257349  0.30094941  0.04222198    -0.80600
O1699       O  0.83123909  0.20731661  0.45490883    -0.80700
O1700       O  0.87209116  0.17471385  0.02754317    -0.80700
O1701       O  0.85795550  0.31507074  0.46930950    -0.80600
O1702       O  0.82377934  0.27819664  0.45002547    -0.80700
O1703       O  0.82894289  0.20471304  0.03326996    -0.80600
O1704       O  0.86971801  0.32436494  0.00202901    -0.80600
O1705       O  0.87192351  0.17753050  0.47375791    -0.80700
Co1706     Co  0.84127302  0.25275801  0.03446896     1.51500
Co1707     Co  0.85855851  0.24599797  0.44531329     1.51700
Co1708     Co  0.89389817  0.20972246  0.00353518     1.51600
Co1709     Co  0.89520960  0.28566825  0.48439691     1.51500
O1710       O  0.87002429  0.24957742  0.99576615    -1.42600
C1711       C  0.85279916  0.32651722  0.02815098     1.09000
C1712       C  0.84510324  0.17972973  0.45944422     1.09100
C1713       C  0.84345246  0.17724470  0.03531741     1.09000
C1714       C  0.83132539  0.30793985  0.45522986     1.09000
O1715       O  0.71255615  0.03155744  0.18048535    -0.80600
O1716       O  0.77347225  0.45935307  0.17798484    -0.80700
O1717       O  0.68026045  0.46523943  0.12100712    -0.80700
O1718       O  0.81556349  0.02725646  0.13138495    -0.80600
O1719       O  0.70919438  0.45549072  0.16574752    -0.80700
O1720       O  0.78657630  0.03317632  0.17666723    -0.80700
O1721       O  0.80906780  0.47324454  0.14351433    -0.80600
O1722       O  0.67895842  0.02709264  0.13662521    -0.80700
C1723       C  0.68410182  0.03124346  0.16784731     1.09100
C1724       C  0.80195854  0.46141263  0.17108699     1.08900
C1725       C  0.68277086  0.45411610  0.15044793     1.09100
C1726       C  0.81352110  0.03473520  0.16207083     1.09000
O1727       O  0.77571439  0.06834931  0.11777534    -0.80600
O1728       O  0.72306231  0.43481551  0.09892112    -0.80700
O1729       O  0.71410733  0.04525486  0.07725795    -0.80700
O1730       O  0.81574793  0.47602941  0.07885266    -0.80600
O1731       O  0.78282937  0.44150457  0.10430730    -0.80700
O1732       O  0.71422465  0.07148330  0.12484955    -0.80600
O1733       O  0.77767629  0.03476880  0.07404077    -0.80600
O1734       O  0.71953268  0.47602673  0.06383649    -0.80700
Co1735     Co  0.74725424  0.04693813  0.15019868     1.51500
Co1736     Co  0.74694400  0.45234012  0.13755171     1.51700
Co1737     Co  0.70197146  0.00366356  0.10033594     1.51600
Co1738     Co  0.78604224  0.99834920  0.10596061     1.51500
O1739       O  0.74430264  0.00219923  0.12653213    -1.42600
C1740       C  0.78099889  0.06341156  0.08703115     1.09000
C1741       C  0.72030316  0.44529546  0.06952208     1.09100
C1742       C  0.71020262  0.07159111  0.09362398     1.09000
C1743       C  0.80581148  0.44675341  0.08411129     1.09000
O1744       O  0.68269713  0.02778696  0.37013728    -0.80600
O1745       O  0.81579891  0.48205378  0.36464813    -0.80700
O1746       O  0.78334812  0.04488044  0.32616294    -0.80700
O1747       O  0.70596591  0.46155928  0.32263353    -0.80600
O1748       O  0.81650038  0.02116266  0.36194554    -0.80700
O1749       O  0.67947141  0.47522684  0.36848927    -0.80700
O1750       O  0.78699815  0.45863579  0.32280636    -0.80600
O1751       O  0.71354687  0.04495844  0.32924397    -0.80700
C1752       C  0.68603352  0.03933895  0.34107550     1.09100
C1753       C  0.81374161  0.46474044  0.33744722     1.08900
C1754       C  0.81146865  0.03821330  0.33551500     1.09100
C1755       C  0.67980305  0.46457826  0.33839647     1.09000
O1756       O  0.71343546  0.45852081  0.42058630    -0.80600
O1757       O  0.81634863  0.02493269  0.42594161    -0.80700
O1758       O  0.72170072  0.06940891  0.39408762    -0.80700
O1759       O  0.77226506  0.42835872  0.37323423    -0.80600
O1760       O  0.79212697  0.45806816  0.41575327    -0.80700
O1761       O  0.70943756  0.03287332  0.43202486    -0.80600
O1762       O  0.72590359  0.42863587  0.37613085    -0.80600
O1763       O  0.78479378  0.06078295  0.39724662    -0.80700
Co1764     Co  0.71195976  0.99979676  0.39547254     1.51500
Co1765     Co  0.78629589  0.00460938  0.39776138     1.51700
Co1766     Co  0.75083612  0.05138287  0.36072461     1.51600
Co1767     Co  0.74764177  0.46210719  0.34853810     1.51500
O1768       O  0.74973172  0.00315281  0.37168788    -1.42600
C1769       C  0.71614539  0.43088844  0.40587430     1.09000
C1770       C  0.80622394  0.05417034  0.41987357     1.09100
C1771       C  0.71227214  0.06262994  0.42292344     1.09000
C1772       C  0.78717246  0.43035162  0.40104711     1.09000
O1773       O  0.54366272  0.17097357  0.22080163    -0.80600
O1774       O  0.95987201  0.15843239  0.29260122    -0.80700
O1775       O  0.96284012  0.13936518  0.18862956    -0.80700
O1776       O  0.52356819  0.11362975  0.32537529    -0.80600
O1777       O  0.93355710  0.16801762  0.22556007    -0.80700
O1778       O  0.53942698  0.15735607  0.29680336    -0.80700
O1779       O  0.97695718  0.11627945  0.32351323    -0.80600
O1780       O  0.52646916  0.13566601  0.18276741    -0.80700
C1781       C  0.54038316  0.16218270  0.19049803     1.09100
C1782       C  0.96436622  0.14452134  0.32093806     1.08900
C1783       C  0.94209154  0.16201486  0.19561121     1.09100
C1784       C  0.53651082  0.14192736  0.32429723     1.09000
O1785       O  0.56808484  0.10660907  0.27629425    -0.80600
O1786       O  0.93223520  0.10576682  0.23099386    -0.80700
O1787       O  0.53454782  0.07095439  0.20391807    -0.80700
O1788       O  0.95815422  0.06517946  0.29277390    -0.80600
O1789       O  0.93224983  0.10877981  0.27039251    -0.80700
O1790       O  0.56650470  0.10989560  0.22476330    -0.80600
O1791       O  0.53881260  0.06293319  0.29005912    -0.80600
O1792       O  0.96199445  0.06940706  0.20517674    -0.80700
Co1793     Co  0.53755747  0.13494487  0.25304425     1.51500
Co1794     Co  0.96347551  0.13999720  0.24603902     1.51700
Co1795     Co  0.49643554  0.10264399  0.19888010     1.51600
Co1796     Co  0.99877061  0.08969852  0.28974669     1.51500
O1797       O  0.99849726  0.11298908  0.24822818    -1.42600
C1798       C  0.56577487  0.07724027  0.28672509     1.09000
C1799       C  0.93474432  0.07948214  0.21382411     1.09100
C1800       C  0.56275339  0.08261521  0.20963847     1.09000
C1801       C  0.93246998  0.08144813  0.28739127     1.09000
O1802       O  0.51326718  0.37949097  0.17624637    -0.80600
O1803       O  0.96639701  0.37090117  0.31398908    -0.80700
O1804       O  0.55875692  0.33590445  0.28133046    -0.80700
O1805       O  0.95707297  0.34014256  0.20295260    -0.80600
O1806       O  0.52872576  0.36860218  0.31284474    -0.80700
O1807       O  0.97708298  0.38074174  0.17205522    -0.80700
O1808       O  0.95694789  0.33031106  0.27845241    -0.80600
O1809       O  0.53908846  0.34382383  0.21046748    -0.80700
C1810       C  0.53099399  0.35367553  0.18110944     1.09100
C1811       C  0.95619585  0.34232328  0.30753007     1.08900
C1812       C  0.54877197  0.34473214  0.30999216     1.09100
C1813       C  0.96116795  0.35339908  0.17468376     1.09000
O1814       O  0.94726414  0.42757878  0.20624380    -0.80600
O1815       O  0.52964238  0.43733784  0.28999627    -0.80700
O1816       O  0.56709968  0.38975851  0.23520943    -0.80700
O1817       O  0.92931639  0.39239914  0.27096324    -0.80600
O1818       O  0.95975728  0.43407565  0.28779365    -0.80700
O1819       O  0.54133122  0.41800162  0.19555961    -0.80600
O1820       O  0.92260254  0.38168151  0.21940942    -0.80600
O1821       O  0.56223578  0.40019255  0.26948065    -0.80700
Co1822     Co  0.49474221  0.41720810  0.20444198     1.51500
Co1823     Co  0.49642372  0.40361055  0.29653700     1.51700
Co1824     Co  0.53143443  0.36338001  0.25592062     1.51600
Co1825     Co  0.95858945  0.36497384  0.24475692     1.51500
O1826       O  0.49658793  0.39053603  0.24670505    -1.42600
C1827       C  0.92200679  0.41044697  0.20794259     1.09000
C1828       C  0.55754469  0.42779004  0.28419192     1.09100
C1829       C  0.56705149  0.40764911  0.20875656     1.09000
C1830       C  0.93235979  0.42086217  0.28376636     1.09000
C1831       C  0.87295450  0.46698996  0.33576454    -0.21800
C1832       C  0.84410284  0.45370107  0.32341117    -0.09800
C1833       C  0.84498311  0.43067940  0.29761575     0.29000
C1834       C  0.87374226  0.42166819  0.28424775    -0.21800
C1835       C  0.90256682  0.43557353  0.29569255    -0.09900
C1836       C  0.90182673  0.45851943  0.32169375     0.29000
F1837       F  0.92886543  0.47174472  0.33441361    -0.20400
H1838       H  0.87321225  0.48469576  0.35591303     0.17400
H1839       H  0.87331166  0.40300374  0.26503059     0.17400
F1840       F  0.81823013  0.41610445  0.28583676    -0.20400
C1841       C  0.59368825  0.43893322  0.33153998    -0.21800
C1842       C  0.58575868  0.44500164  0.29813468    -0.09800
C1843       C  0.60877964  0.45892566  0.27781728     0.29000
C1844       C  0.63989608  0.46399235  0.29007635    -0.21800
C1845       C  0.64819299  0.45632740  0.32327112    -0.09900
C1846       C  0.62418061  0.44477234  0.34410298     0.29000
F1847       F  0.63031582  0.43823297  0.37672532    -0.20400
H1848       H  0.57656891  0.42786328  0.34766394     0.17400
H1849       H  0.65717357  0.47474973  0.27397745     0.17400
F1850       F  0.60097087  0.46808386  0.24634919    -0.20400
C1851       C  0.85252769  0.08122592  0.32851834    -0.21800
C1852       C  0.83947478  0.05120930  0.31799833    -0.09800
C1853       C  0.85676729  0.03184406  0.29596428     0.29000
C1854       C  0.88786488  0.04023431  0.28768743    -0.21800
C1855       C  0.90130323  0.06979251  0.29913722    -0.09900
C1856       C  0.88253679  0.09096856  0.31827414     0.29000
F1857       F  0.89345910  0.12098316  0.32758581    -0.20400
H1858       H  0.83965614  0.09693691  0.34527164     0.17400
H1859       H  0.90084162  0.02443146  0.27113177     0.17400
F1860       F  0.84323084  0.00511406  0.28205791    -0.20400
C1861       C  0.62804982  0.03188800  0.33544143    -0.21800
C1862       C  0.65608102  0.04540082  0.32269633    -0.09800
C1863       C  0.65387399  0.06663387  0.29562377     0.29000
C1864       C  0.62417300  0.07512337  0.28278838    -0.21800
C1865       C  0.59618678  0.06196030  0.29594455    -0.09900
C1866       C  0.59851999  0.03971703  0.32204616     0.29000
F1867       F  0.57235277  0.02818624  0.33686871    -0.20400
H1868       H  0.62866655  0.01596918  0.35692373     0.17400
H1869       H  0.62307620  0.09394615  0.26401262     0.17400
F1870       F  0.67989548  0.08134540  0.28350300    -0.20400
C1871       C  0.83670862  0.41435714  0.18008281    -0.21800
C1872       C  0.82760711  0.44568805  0.19045750    -0.09800
C1873       C  0.84946616  0.46485812  0.20839877     0.29000
C1874       C  0.88094619  0.45461537  0.21245338    -0.21800
C1875       C  0.89046112  0.42401676  0.19997630    -0.09900
C1876       C  0.86767498  0.40351353  0.18474849     0.29000
F1877       F  0.87566070  0.37330555  0.17328545    -0.20400
H1878       H  0.82020254  0.39896670  0.16652909     0.17400
H1879       H  0.89750021  0.46997496  0.22623528     0.17400
F1880       F  0.84009791  0.49346449  0.22184301    -0.20400
C1881       C  0.62638361  0.41394902  0.21111151    -0.21800
C1882       C  0.59746268  0.41668611  0.19334318    -0.09800
C1883       C  0.59782482  0.42851614  0.16053067     0.29000
C1884       C  0.62593858  0.43879492  0.14663009    -0.21800
C1885       C  0.65445037  0.43884067  0.16526465    -0.09900
C1886       C  0.65451398  0.42567478  0.19762048     0.29000
F1887       F  0.68142327  0.42474219  0.21648035    -0.20400
H1888       H  0.62701023  0.40415756  0.23612364     0.17400
H1889       H  0.62496374  0.44815897  0.12144533     0.17400
F1890       F  0.57096443  0.43032792  0.14163730    -0.20400
C1891       C  0.87232611  0.02968999  0.16665701    -0.21800
C1892       C  0.84405195  0.04317107  0.17901183    -0.09800
C1893       C  0.84617693  0.06570665  0.20520910     0.29000
C1894       C  0.87582620  0.07573061  0.21741103    -0.21800
C1895       C  0.90427408  0.06301216  0.20450240    -0.09900
C1896       C  0.90201857  0.03914960  0.17940866     0.29000
F1897       F  0.92833570  0.02636982  0.16579951    -0.20400
H1898       H  0.87145747  0.01185429  0.14661426     0.17400
H1899       H  0.87630947  0.09462276  0.23639199     0.17400
F1900       F  0.81980652  0.07954050  0.21765450    -0.20400
C1901       C  0.62818371  0.02096700  0.18599532    -0.21800
C1902       C  0.65539786  0.04109949  0.18658127    -0.09800
C1903       C  0.65113172  0.07434284  0.19402413     0.29000
C1904       C  0.62091790  0.08694386  0.19964044    -0.21800
C1905       C  0.59357439  0.06682687  0.19984305    -0.09900
C1906       C  0.59778313  0.03330526  0.19300138     0.29000
F1907       F  0.57272063  0.01267903  0.19240069    -0.20400
H1908       H  0.63026581  0.99553785  0.17886076     0.17400
H1909       H  0.61911390  0.11312850  0.20403466     0.17400
F1910       F  0.67589803  0.09535782  0.19308569    -0.20400
C1911       C  0.83820070  0.41822908  0.04052016    -0.21800
C1912       C  0.82081328  0.41734291  0.06986824    -0.09800
C1913       C  0.81603327  0.38691690  0.08551987     0.29000
C1914       C  0.82786944  0.35840126  0.07222225    -0.21800
C1915       C  0.84401591  0.35863456  0.04231033    -0.09900
C1916       C  0.84963012  0.38892923  0.02656177     0.29000
F1917       F  0.86485882  0.39014429  0.99726148    -0.20400
H1918       H  0.84191221  0.44126365  0.02785252     0.17400
H1919       H  0.82332511  0.33573041  0.08525712     0.17400
F1920       F  0.79885797  0.38403625  0.11339529    -0.20400
C1921       C  0.80130282  0.15121622  0.06749211    -0.21800
C1922       C  0.82613400  0.14759519  0.04555801    -0.09800
C1923       C  0.83450582  0.11573371  0.03486842     0.29000
C1924       C  0.81784715  0.08818230  0.04589431    -0.21800
C1925       C  0.79378101  0.09190603  0.06898109    -0.09900
C1926       C  0.78600784  0.12387284  0.07987955     0.29000
F1927       F  0.76417351  0.12884277  0.10357625    -0.20400
H1928       H  0.79472468  0.17530164  0.07651362     0.17400
H1929       H  0.82507611  0.06390960  0.03805905     0.17400
F1930       F  0.85897693  0.11112325  0.01419171    -0.20400
C1931       C  0.81568824  0.34235311  0.40756962    -0.21800
C1932       C  0.81254168  0.33557092  0.44147247    -0.09800
C1933       C  0.79985213  0.35998327  0.46211838     0.29000
C1934       C  0.79284085  0.39142046  0.44951182    -0.21800
C1935       C  0.79756505  0.39864262  0.41583162    -0.09900
C1936       C  0.80817968  0.37333234  0.39478073     0.29000
F1937       F  0.81228650  0.37885458  0.36185217    -0.20400
H1938       H  0.82592782  0.32419556  0.39125113     0.17400
H1939       H  0.78298036  0.40979534  0.46581071     0.17400
F1940       F  0.79375799  0.35322592  0.49428105    -0.20400
C1941       C  0.79684704  0.10337463  0.45278549    -0.21800
C1942       C  0.81853379  0.08257058  0.43713553    -0.09800
C1943       C  0.84763032  0.09456171  0.42760426     0.29000
C1944       C  0.85450911  0.12744442  0.43244433    -0.21800
C1945       C  0.83273417  0.14860270  0.44751672    -0.09900
C1946       C  0.80380454  0.13647991  0.45787879     0.29000
F1947       F  0.78303065  0.15614820  0.47368137    -0.20400
H1948       H  0.77403318  0.09409011  0.45972368     0.17400
H1949       H  0.87731432  0.13643793  0.42499271     0.17400
F1950       F  0.86836985  0.07502762  0.41156040    -0.20400
C1951       C  0.91632199  0.34523048  0.34984063    -0.21800
C1952       C  0.94028812  0.32676255  0.33493193    -0.09800
C1953       C  0.95553347  0.30191049  0.35300832     0.29000
C1954       C  0.94785504  0.29676265  0.38619624    -0.21800
C1955       C  0.92425936  0.31557307  0.40106971    -0.09900
C1956       C  0.90828377  0.33962788  0.38268301     0.29000
F1957       F  0.88537155  0.35797139  0.39672149    -0.20400
H1958       H  0.90518687  0.36542067  0.33656115     0.17400
H1959       H  0.96003839  0.27782909  0.40029587     0.17400
F1960       F  0.97890872  0.28405634  0.33918811    -0.20400
C1961       C  0.92889870  0.30890351  0.14829497    -0.21800
C1962       C  0.94813279  0.33659026  0.14444228    -0.09800
C1963       C  0.95138072  0.34943337  0.11217117     0.29000
C1964       C  0.93821465  0.33300164  0.08447286    -0.21800
C1965       C  0.91919632  0.30507680  0.08841309    -0.09900
C1966       C  0.91353986  0.29430876  0.12101702     0.29000
F1967       F  0.89190673  0.27090500  0.12715739    -0.20400
H1968       H  0.92420762  0.29940906  0.17282238     0.17400
H1969       H  0.94137093  0.34336273  0.05999859     0.17400
F1970       F  0.96537968  0.37886418  0.10734129    -0.20400
C1971       C  0.93931792  0.20925281  0.38276879    -0.21800
C1972       C  0.93868732  0.19158775  0.41271297    -0.09800
C1973       C  0.94670770  0.15821993  0.41236328     0.29000
C1974       C  0.95452756  0.14303720  0.38229949    -0.21800
C1975       C  0.95555855  0.16105283  0.35233589    -0.09900
C1976       C  0.94824190  0.19454709  0.35309984     0.29000
F1977       F  0.94841584  0.21292198  0.32502914    -0.20400
H1978       H  0.93058435  0.23409477  0.38185114     0.17400
H1979       H  0.95901428  0.11686998  0.38236567     0.17400
F1980       F  0.94402310  0.13969244  0.44016880    -0.20400
C1981       C  0.94078100  0.20491502  0.11354605    -0.21800
C1982       C  0.90849889  0.20741019  0.10660129    -0.09800
C1983       C  0.88682155  0.19855055  0.13117451     0.29000
C1984       C  0.89758566  0.18547830  0.16152059    -0.21800
C1985       C  0.92992207  0.18138385  0.16749471    -0.09900
C1986       C  0.95134096  0.19253001  0.14395412     0.29000
F1987       F  0.98265079  0.19126671  0.15054043    -0.20400
H1988       H  0.95781622  0.21241495  0.09538864     0.17400
H1989       H  0.88077442  0.17706063  0.17948192     0.17400
F1990       F  0.85529567  0.20097892  0.12520315    -0.20400
C1991       C  0.66811065  0.37331837  0.45491290    -0.21800
C1992       C  0.68185578  0.34260639  0.44816166    -0.09800
C1993       C  0.70853091  0.34117655  0.42830088     0.29000
C1994       C  0.72038769  0.37025389  0.41488838    -0.21800
C1995       C  0.70655933  0.40082505  0.42250503    -0.09900
C1996       C  0.68067732  0.40205964  0.44316040     0.29000
F1997       F  0.66561896  0.43075648  0.44957692    -0.20400
H1998       H  0.64647978  0.37523471  0.46850745     0.17400
H1999       H  0.73971918  0.36879777  0.39786285     0.17400
F2000       F  0.72136437  0.31191559  0.41971383    -0.20400
C2001       C  0.66553296  0.12125075  0.47647063    -0.21800
C2002       C  0.67882387  0.15175516  0.46737734    -0.09800
C2003       C  0.70540332  0.15163669  0.44746751     0.29000
C2004       C  0.71735775  0.12199054  0.43569701    -0.21800
C2005       C  0.70311611  0.09159635  0.44309864    -0.09900
C2006       C  0.67745940  0.09143353  0.46441839     0.29000
F2007       F  0.66234038  0.06302116  0.47134920    -0.20400
H2008       H  0.64496532  0.12047164  0.49192513     0.17400
H2009       H  0.73703347  0.12302850  0.41902164     0.17400
F2010       F  0.71864471  0.18014912  0.43750115    -0.20400
C2011       C  0.72916313  0.39116411  0.04325458    -0.21800
C2012       C  0.71093512  0.42015747  0.04496709    -0.09800
C2013       C  0.67872749  0.41827382  0.03741358     0.29000
C2014       C  0.66437747  0.38778986  0.03312311    -0.21800
C2015       C  0.68193583  0.35824375  0.03378176    -0.09900
C2016       C  0.71490397  0.36043583  0.03729423     0.29000
F2017       F  0.73305195  0.33300199  0.03725333    -0.20400
H2018       H  0.75404312  0.39194800  0.04978970     0.17400
H2019       H  0.63895824  0.38750408  0.03012520     0.17400
F2020       F  0.66027052  0.44543159  0.03944704    -0.20400
C2021       C  0.66894282  0.15244099  0.08633578    -0.21800
C2022       C  0.68482210  0.16812133  0.06066300    -0.09800
C2023       C  0.70898080  0.15110198  0.04446299     0.29000
C2024       C  0.71542601  0.11808013  0.05258931    -0.21800
C2025       C  0.69939708  0.10274120  0.07856650    -0.09900
C2026       C  0.67608035  0.12037890  0.09523655     0.29000
F2027       F  0.65952122  0.10617387  0.11985442    -0.20400
H2028       H  0.64956114  0.16463510  0.09847398     0.17400
H2029       H  0.73369543  0.10503994  0.03960459     0.17400
F2030       F  0.72567328  0.16599632  0.02044240    -0.20400
C2031       C  0.58493944  0.28315048  0.37017718    -0.21800
C2032       C  0.57236536  0.29287659  0.40091708    -0.09800
C2033       C  0.55032092  0.31849707  0.40099474     0.29000
C2034       C  0.54292109  0.33515914  0.37131641    -0.21800
C2035       C  0.55717779  0.32651763  0.34094299    -0.09900
C2036       C  0.57736635  0.29936973  0.34060792     0.29000
F2037       F  0.59079987  0.28907666  0.31206360    -0.20400
H2038       H  0.60271586  0.26436379  0.36919409     0.17400
H2039       H  0.52640873  0.35539540  0.37238539     0.17400
F2040       F  0.53787842  0.32916740  0.42990434    -0.20400
C2041       C  0.53476988  0.34705953  0.11859825    -0.21800
C2042       C  0.54309826  0.33611690  0.15096412    -0.09800
C2043       C  0.56528587  0.31051442  0.15375970     0.29000
C2044       C  0.57909414  0.29734681  0.12527162    -0.21800
C2045       C  0.57028816  0.30779658  0.09302816    -0.09900
C2046       C  0.54749193  0.33263147  0.08996984     0.29000
F2047       F  0.53960007  0.34499451  0.05960709    -0.20400
H2048       H  0.51951606  0.36799028  0.11535997     0.17400
H2049       H  0.59788975  0.27976954  0.12852041     0.17400
F2050       F  0.57520362  0.29938812  0.18400966    -0.20400
C2051       C  0.57403649  0.17863062  0.35284545    -0.21800
C2052       C  0.54922622  0.15656183  0.35531648    -0.09800
C2053       C  0.53894963  0.14751608  0.38722485     0.29000
C2054       C  0.55092973  0.16364979  0.41575990    -0.21800
C2055       C  0.57534128  0.18656571  0.41290736    -0.09900
C2056       C  0.58793755  0.19213346  0.38110138     0.29000
F2057       F  0.61481635  0.20943639  0.37695110    -0.20400
H2058       H  0.58394335  0.18426101  0.32891294     0.17400
H2059       H  0.54228173  0.15712663  0.44000130     0.17400
F2060       F  0.51836658  0.12249660  0.39100549    -0.20400
C2061       C  0.54203192  0.17176955  0.12985284    -0.21800
C2062       C  0.55368317  0.18000995  0.16200994    -0.09800
C2063       C  0.57976605  0.20094350  0.16491330     0.29000
C2064       C  0.59339368  0.21339383  0.13610298    -0.21800
C2065       C  0.58041859  0.20632019  0.10415108    -0.09900
C2066       C  0.55473771  0.18500740  0.10145272     0.29000
F2067       F  0.54281418  0.17538265  0.07135324    -0.20400
H2068       H  0.52295076  0.15438631  0.12634510     0.17400
H2069       H  0.61453080  0.22805909  0.13885994     0.17400
F2070       F  0.59319009  0.20773566  0.19510644    -0.20400
O2071       O  0.58055747  0.21722611  0.54494548    -0.80600
O2072       O  0.57749995  0.28259796  0.96190240    -0.80700
O2073       O  0.61905330  0.29462039  0.56891702    -0.80700
O2074       O  0.61998839  0.21310905  0.93773750    -0.80600
O2075       O  0.57758502  0.29261907  0.53457969    -0.80700
O2076       O  0.57985879  0.20451820  0.97018480    -0.80700
O2077       O  0.61795046  0.27510003  0.92878960    -0.80600
O2078       O  0.62169471  0.23175720  0.57635094    -0.80700
C2079       C  0.59398954  0.22008282  0.57332176     1.09100
C2080       C  0.58900747  0.28170461  0.93274661     1.08900
C2081       C  0.58942943  0.29718596  0.56388716     1.09100
C2082       C  0.59252971  0.20206597  0.94189528     1.09000
O2083       O  0.63684933  0.18070193  0.98667985    -0.80600
O2084       O  0.63475558  0.32889562  0.52545752    -0.80700
O2085       O  0.67813729  0.22396780  0.54084218    -0.80700
O2086       O  0.67642765  0.28631304  0.96381107    -0.80600
O2087       O  0.63448140  0.31909763  0.96253418    -0.80700
O2088       O  0.63745670  0.18935984  0.53641448    -0.81800
O2089       O  0.67690665  0.21295346  0.97333482    -0.80600
O2090       O  0.67690569  0.29752229  0.53236472    -0.80700
Co2091     Co  0.60852993  0.21581995  0.50714462     1.51500
Co2092     Co  0.60611410  0.30203035  0.99692739     1.51700
Co2093     Co  0.64892094  0.26185020  0.54973963     1.51600
Co2094     Co  0.64790508  0.24822047  0.95586992     1.51500
O2095       O  0.62811308  0.25821119  0.50205648    -1.42600
C2096       C  0.66485173  0.18403069  0.97604195     1.09000
C2097       C  0.66439826  0.32612896  0.53008286     1.09100
C2098       C  0.66613467  0.19530249  0.54491518     1.09000
C2099       C  0.66385097  0.31450527  0.95896395     1.09000
O2100       O  0.87359712  0.23419076  0.57057030    -0.80600
O2101       O  0.88986136  0.28041170  0.92860799    -0.80700
O2102       O  0.92928617  0.20504503  0.97292879    -0.80700
O2103       O  0.91371905  0.29568336  0.52975047    -0.80600
O2104       O  0.89391881  0.21513057  0.93258084    -0.80700
O2105       O  0.87771726  0.27293710  0.56346242    -0.80700
O2106       O  0.92114579  0.31352441  0.96020015    -0.80600
O2107       O  0.91492785  0.21029535  0.54570983    -0.80700
C2108       C  0.89961573  0.21715867  0.57177396     1.09100
C2109       C  0.91159940  0.30265715  0.93180556     1.08900
C2110       C  0.92094572  0.20497904  0.94230252     1.09100
C2111       C  0.90336438  0.28963234  0.55885106     1.09000
O2112       O  0.84314814  0.30009459  0.54302858    -0.80600
O2113       O  0.83167346  0.20649093  0.95586087    -0.80700
O2114       O  0.87267982  0.17434474  0.52586642    -0.80700
O2115       O  0.85815817  0.31459131  0.96888212    -0.80600
O2116       O  0.82419060  0.27737941  0.94981975    -0.80700
O2117       O  0.82958816  0.20417093  0.53251274    -0.80600
O2118       O  0.86937096  0.32398096  0.50238876    -0.80600
O2119       O  0.87218774  0.17700849  0.97559795    -0.80700
Co2120     Co  0.84210253  0.25197002  0.53464645     1.51500
Co2121     Co  0.85904471  0.24507127  0.94593361     1.51700
Co2122     Co  0.89414393  0.20967603  0.50177773     1.51600
Co2123     Co  0.89524186  0.28539381  0.98457551     1.51500
O2124       O  0.87014262  0.24962407  0.49518060    -1.42600
C2125       C  0.85277060  0.32581224  0.52874539     1.09000
C2126       C  0.84555765  0.17897584  0.96082530     1.09100
C2127       C  0.84412993  0.17674321  0.53407405     1.09000
C2128       C  0.83155776  0.30721062  0.95490616     1.09000
O2129       O  0.71321769  0.03251288  0.67985763    -0.80600
O2130       O  0.77460327  0.45937504  0.67791004    -0.80700
O2131       O  0.68075530  0.46565332  0.62182648    -0.80700
O2132       O  0.81634094  0.02669547  0.63138698    -0.80600
O2133       O  0.70998117  0.45609731  0.66646552    -0.80700
O2134       O  0.78705155  0.03298568  0.67644395    -0.80700
O2135       O  0.80993359  0.47271064  0.64293996    -0.80600
O2136       O  0.67980508  0.02821945  0.63590108    -0.80700
C2137       C  0.68481687  0.03226484  0.66711807     1.09100
C2138       C  0.80303773  0.46089987  0.67057077     1.08900
C2139       C  0.68342426  0.45480914  0.65139271     1.09100
C2140       C  0.81412414  0.03411252  0.66209761     1.09000
O2141       O  0.77713780  0.06817452  0.61736781    -0.80600
O2142       O  0.72297607  0.43449201  0.59977668    -0.80700
O2143       O  0.71508078  0.04487225  0.57649259    -0.80700
O2144       O  0.81599964  0.47533966  0.57841551    -0.80600
O2145       O  0.78284306  0.44130346  0.60423427    -0.80700
O2146       O  0.71567375  0.07197103  0.62368102    -0.80600
O2147       O  0.77844378  0.03453464  0.57369365    -0.80600
O2148       O  0.71992318  0.47519106  0.56411117    -0.80700
Co2149     Co  0.74821480  0.04728503  0.64965337     1.51500
Co2150     Co  0.74742222  0.45238086  0.63786543     1.51700
Co2151     Co  0.70266504  0.00383354  0.60030816     1.51600
Co2152     Co  0.78664256  0.99815358  0.60566883     1.51500
O2153       O  0.74500574  0.00239732  0.62644942    -1.42600
C2154       C  0.78206214  0.06316377  0.58657045     1.09000
C2155       C  0.72051123  0.44453951  0.57020705     1.09100
C2156       C  0.71130920  0.07147404  0.59246854     1.09000
C2157       C  0.80572035  0.44621478  0.58383760     1.09000
O2158       O  0.68302834  0.02917720  0.87060340    -0.80600
O2159       O  0.81549218  0.48024943  0.86500327    -0.80700
O2160       O  0.78367125  0.04289767  0.82586167    -0.80700
O2161       O  0.70539176  0.46197542  0.82297842    -0.80600
O2162       O  0.81639157  0.01905071  0.86211880    -0.80700
O2163       O  0.67915352  0.47655874  0.86877204    -0.80700
O2164       O  0.78651778  0.45711733  0.82316006    -0.80600
O2165       O  0.71402018  0.04508106  0.82929079    -0.80700
C2166       C  0.68644811  0.04034021  0.84139534     1.09100
C2167       C  0.81333378  0.46275069  0.83786924     1.08900
C2168       C  0.81156939  0.03571093  0.83544132     1.09100
C2169       C  0.67930746  0.46562528  0.83876128     1.09000
O2170       O  0.71277062  0.45969302  0.92121799    -0.80600
O2171       O  0.81672886  0.02410274  0.92591379    -0.80700
O2172       O  0.72317981  0.07020465  0.89363200    -0.80700
O2173       O  0.77098993  0.42760416  0.87358774    -0.80600
O2174       O  0.79191724  0.45703873  0.91576899    -0.80700
O2175       O  0.71092504  0.03420367  0.93204103    -0.80600
O2176       O  0.72479474  0.42939641  0.87685798    -0.80600
O2177       O  0.78596956  0.06024688  0.89667696    -0.80700
Co2178     Co  0.71206998  0.00070479  0.89567909     1.51500
Co2179     Co  0.78628629  0.00370204  0.89811187     1.51700
Co2180     Co  0.75169273  0.05103071  0.86039553     1.51600
Co2181     Co  0.74708123  0.46189845  0.84881096     1.51500
O2182       O  0.74982240  0.00298465  0.87189757    -1.42600
C2183       C  0.71523235  0.43196608  0.90664270     1.09000
C2184       C  0.80726061  0.05348932  0.91940532     1.09100
C2185       C  0.71423509  0.06385779  0.92272875     1.09000
C2186       C  0.78633116  0.42938785  0.90117162     1.09000
O2187       O  0.54274001  0.17105314  0.71834456    -0.80600
O2188       O  0.96128462  0.16073928  0.79568202    -0.80700
O2189       O  0.96454707  0.13339994  0.68137159    -0.80700
O2190       O  0.52402231  0.11519500  0.82399900    -0.80600
O2191       O  0.95227748  0.17037450  0.72028488    -0.80700
O2192       O  0.53968815  0.15934697  0.79597715    -0.80700
O2193       O  0.97747098  0.11691544  0.82412651    -0.80600
O2194       O  0.52782885  0.13322314  0.68113963    -0.80700
C2195       C  0.54048305  0.16072394  0.68841427     1.09100
C2196       C  0.96589307  0.14590858  0.82332765     1.08900
C2197       C  0.95286637  0.16114655  0.69010003     1.09100
C2198       C  0.53710822  0.14345310  0.82328629     1.09000
O2199       O  0.56826891  0.10862410  0.77577312    -0.80600
O2200       O  0.92994943  0.10861625  0.72662033    -0.80700
O2201       O  0.53583010  0.07019036  0.70733873    -0.80700
O2202       O  0.95874953  0.06468931  0.79091335    -0.80600
O2203       O  0.92954682  0.10925284  0.77896739    -0.80700
O2204       O  0.56716466  0.11102958  0.72493029    -0.80600
O2205       O  0.53937881  0.06470907  0.78930102    -0.80600
O2206       O  0.96212818  0.06891005  0.70908439    -0.80700
Co2207     Co  0.53759574  0.13683933  0.75213773     1.51500
Co2208     Co  0.95941126  0.13604082  0.75318180     1.51700
Co2209     Co  0.49750642  0.10063804  0.69843067     1.51600
Co2210     Co  0.99912649  0.09126355  0.78826767     1.51500
O2211       O  0.99850180  0.11552448  0.74627663    -1.42600
C2212       C  0.56623829  0.07935387  0.78660493     1.09000
C2213       C  0.93409610  0.08017977  0.71417746     1.09100
C2214       C  0.56383677  0.08283864  0.71143966     1.09000
C2215       C  0.93199244  0.07998915  0.79008817     1.09000
O2216       O  0.51395005  0.37825551  0.67723354    -0.80600
O2217       O  0.96798592  0.36835111  0.81455455    -0.80700
O2218       O  0.56088389  0.33606028  0.78242151    -0.80700
O2219       O  0.95782023  0.33877937  0.70323586    -0.80600
O2220       O  0.53026397  0.36843389  0.81359770    -0.80700
O2221       O  0.97778939  0.37966461  0.67268099    -0.80700
O2222       O  0.95891790  0.32805135  0.77852903    -0.80600
O2223       O  0.54057689  0.34316805  0.71140301    -0.80700
C2224       C  0.53197204  0.35268290  0.68206259     1.09100
C2225       C  0.95841863  0.33957524  0.80782012     1.08900
C2226       C  0.55093642  0.34515043  0.81101640     1.09100
C2227       C  0.96180610  0.35232417  0.67508163     1.09000
O2228       O  0.94804443  0.42626138  0.70747961    -0.80600
O2229       O  0.52917260  0.43695982  0.79067756    -0.80700
O2230       O  0.56806590  0.38989940  0.73632461    -0.80700
O2231       O  0.92964739  0.38934030  0.77214471    -0.80600
O2232       O  0.95940692  0.43164892  0.78861467    -0.80700
O2233       O  0.54206104  0.41705411  0.69608225    -0.80600
O2234       O  0.92342121  0.38024254  0.72033674    -0.80600
O2235       O  0.56266268  0.40059426  0.77029706    -0.80700
Co2236     Co  0.49549150  0.41599345  0.70531409     1.51500
Co2237     Co  0.49692350  0.40223568  0.79726484     1.51700
Co2238     Co  0.53284516  0.36280531  0.75686549     1.51600
Co2239     Co  0.95957296  0.36320148  0.74530644     1.51500
O2240       O  0.49740430  0.38918494  0.74745834    -1.42600
C2241       C  0.92280515  0.40910786  0.70911652     1.09000
C2242       C  0.55730298  0.42811998  0.78490295     1.09100
C2243       C  0.56788535  0.40737767  0.70960296     1.09000
C2244       C  0.93222953  0.41788543  0.78489120     1.09000
C2245       C  0.87256896  0.46472096  0.83606277    -0.21800
C2246       C  0.84369474  0.45129425  0.82394925    -0.09800
C2247       C  0.84462577  0.42766930  0.79867946     0.29000
C2248       C  0.87346124  0.41825004  0.78557612    -0.21800
C2249       C  0.90227217  0.43236978  0.79678352    -0.09900
C2250       C  0.90145606  0.45591507  0.82222512     0.29000
F2251       F  0.92845535  0.46956620  0.83455085    -0.20400
H2252       H  0.87283703  0.48287848  0.85579313     0.17400
H2253       H  0.87311748  0.39927405  0.76666243     0.17400
F2254       F  0.81785365  0.41290867  0.78721935    -0.20400
C2255       C  0.59322030  0.43987349  0.83227553    -0.21800
C2256       C  0.58512129  0.44597870  0.79890831    -0.09800
C2257       C  0.60791802  0.46030904  0.77859444     0.29000
C2258       C  0.63907541  0.46546240  0.79071363    -0.21800
C2259       C  0.64759011  0.45756846  0.82380035    -0.09900
C2260       C  0.62372469  0.44588644  0.84472718     0.29000
F2261       F  0.63006118  0.43929508  0.87730196    -0.20400
H2262       H  0.57627216  0.42854164  0.84841664     0.17400
H2263       H  0.65622490  0.47640362  0.77458783     0.17400
F2264       F  0.59989385  0.46957824  0.74720129    -0.20400
C2265       C  0.85314291  0.07735334  0.83136688    -0.21800
C2266       C  0.83972400  0.04846608  0.81870081    -0.09800
C2267       C  0.85719894  0.02936359  0.79660479     0.29000
C2268       C  0.88854615  0.03761189  0.78925070    -0.21800
C2269       C  0.90220634  0.06624668  0.80267702    -0.09900
C2270       C  0.88362342  0.08655097  0.82297355     0.29000
F2271       F  0.89495063  0.11566283  0.83459867    -0.20400
H2272       H  0.84017594  0.09253450  0.84853639     0.17400
H2273       H  0.90146388  0.02263337  0.77189146     0.17400
F2274       F  0.84370183  0.00292753  0.78206693    -0.20400
C2275       C  0.62843090  0.03306111  0.83520152    -0.21800
C2276       C  0.65656125  0.04696218  0.82312054    -0.09800
C2277       C  0.65449728  0.06946441  0.79715853     0.29000
C2278       C  0.62486839  0.07873897  0.78478876    -0.21800
C2279       C  0.59677134  0.06457105  0.79660212    -0.09900
C2280       C  0.59895910  0.04122037  0.82173553     0.29000
F2281       F  0.57269324  0.02872201  0.83555053    -0.20400
H2282       H  0.62895667  0.01642781  0.85611131     0.17400
H2283       H  0.62395786  0.09878980  0.76740636     0.17400
F2284       F  0.68060596  0.08467275  0.78586152    -0.20400
C2285       C  0.83829745  0.41386191  0.67844206    -0.21800
C2286       C  0.82878996  0.44483371  0.68958587    -0.09800
C2287       C  0.85015396  0.46352997  0.70869076     0.29000
C2288       C  0.88145493  0.45302748  0.71374482    -0.21800
C2289       C  0.89132038  0.42271579  0.70086828    -0.09900
C2290       C  0.86906218  0.40274290  0.68411583     0.29000
F2291       F  0.87746091  0.37291057  0.67200171    -0.20400
H2292       H  0.82233576  0.39899373  0.66358829     0.17400
H2293       H  0.89764223  0.46806900  0.72836310     0.17400
F2294       F  0.84059726  0.49213634  0.72193945    -0.20400
C2295       C  0.62699348  0.41570404  0.71279268    -0.21800
C2296       C  0.59828560  0.41690318  0.69443555    -0.09800
C2297       C  0.59884316  0.42766190  0.66127068     0.29000
C2298       C  0.62692033  0.43816671  0.64744734    -0.21800
C2299       C  0.65515482  0.43967783  0.66651076    -0.09900
C2300       C  0.65501173  0.42784966  0.69939104     0.29000
F2301       F  0.68157419  0.42863515  0.71881681    -0.20400
H2302       H  0.62749572  0.40675458  0.73812593     0.17400
H2303       H  0.62611264  0.44648745  0.62188552     0.17400
F2304       F  0.57222317  0.42805498  0.64191226    -0.20400
C2305       C  0.87294611  0.02898600  0.66707420    -0.21800
C2306       C  0.84450998  0.04210392  0.67945384    -0.09800
C2307       C  0.84628071  0.06397332  0.70623031     0.29000
C2308       C  0.87573008  0.07406975  0.71874796    -0.21800
C2309       C  0.90430124  0.06245591  0.70523576    -0.09900
C2310       C  0.90250526  0.03873171  0.67999104     0.29000
F2311       F  0.92905795  0.02665226  0.66624114    -0.20400
H2312       H  0.87230846  0.01146251  0.64674575     0.17400
H2313       H  0.87602201  0.09235770  0.73834821     0.17400
F2314       F  0.81974406  0.07723141  0.71889708    -0.20400
C2315       C  0.62805836  0.02238358  0.68204448    -0.21800
C2316       C  0.65592505  0.04129523  0.68591878    -0.09800
C2317       C  0.65261300  0.07343409  0.69757182     0.29000
C2318       C  0.62266021  0.08619335  0.70421989    -0.21800
C2319       C  0.59472646  0.06697574  0.70184991    -0.09900
C2320       C  0.59800573  0.03454537  0.69054029     0.29000
F2321       F  0.57227772  0.01516851  0.68614732    -0.20400
H2322       H  0.62930384  0.99844200  0.67067707     0.17400
H2323       H  0.62156354  0.11188226  0.71111861     0.17400
F2324       F  0.67799635  0.09365821  0.69946169    -0.20400
C2325       C  0.83861311  0.41745368  0.54104300    -0.21800
C2326       C  0.82034035  0.41660741  0.56973858    -0.09800
C2327       C  0.81462000  0.38615493  0.58501488     0.29000
C2328       C  0.82643292  0.35756454  0.57191253    -0.21800
C2329       C  0.84363649  0.35782472  0.54270635    -0.09900
C2330       C  0.85010332  0.38812318  0.52733853     0.29000
F2331       F  0.86639092  0.38936275  0.49869484    -0.20400
H2332       H  0.84310146  0.44051941  0.52873071     0.17400
H2333       H  0.82110321  0.33485998  0.58453193     0.17400
F2334       F  0.79656721  0.38331835  0.61228554    -0.20400
C2335       C  0.80231469  0.15080911  0.56670611    -0.21800
C2336       C  0.82684391  0.14711494  0.54438997    -0.09800
C2337       C  0.83480937  0.11527886  0.53334077     0.29000
C2338       C  0.81825085  0.08777374  0.54465707    -0.21800
C2339       C  0.79462249  0.09156797  0.56824169    -0.09900
C2340       C  0.78701606  0.12353997  0.57920718     0.29000
F2341       F  0.76531798  0.12857422  0.60303700    -0.20400
H2342       H  0.79595234  0.17489889  0.57589200     0.17400
H2343       H  0.82521638  0.06348562  0.53660868     0.17400
F2344       F  0.85876991  0.11066321  0.51202229    -0.20400
C2345       C  0.81491039  0.34134984  0.90730371    -0.21800
C2346       C  0.81240668  0.33467248  0.94130112    -0.09800
C2347       C  0.79982388  0.35904763  0.96207118     0.29000
C2348       C  0.79249843  0.39041888  0.94951365    -0.21800
C2349       C  0.79672999  0.39759697  0.91575231    -0.09900
C2350       C  0.80708183  0.37227865  0.89456249     0.29000
F2351       F  0.81071366  0.37777513  0.86155835    -0.20400
H2352       H  0.82491275  0.32316974  0.89084737     0.17400
H2353       H  0.78282246  0.40879284  0.96594075     0.17400
F2354       F  0.79410451  0.35231040  0.99431648    -0.20400
C2355       C  0.79779435  0.10225740  0.95294573    -0.21800
C2356       C  0.81955386  0.08183148  0.93690219    -0.09800
C2357       C  0.84863727  0.09415177  0.92767569     0.29000
C2358       C  0.85543385  0.12697590  0.93329233    -0.21800
C2359       C  0.83352286  0.14776227  0.94865992    -0.09900
C2360       C  0.80464555  0.13527695  0.95876154     0.29000
F2361       F  0.78379254  0.15450355  0.97498527    -0.20400
H2362       H  0.77496994  0.09279168  0.95962036     0.17400
H2363       H  0.87821723  0.13623583  0.92608826     0.17400
F2364       F  0.86949526  0.07502425  0.91132703    -0.20400
C2365       C  0.91680214  0.34025135  0.84806198    -0.21800
C2366       C  0.94275344  0.32344316  0.83503770    -0.09800
C2367       C  0.95945037  0.30101997  0.85501473     0.29000
C2368       C  0.95087486  0.29650872  0.88806999    -0.21800
C2369       C  0.92526792  0.31380392  0.90105183    -0.09900
C2370       C  0.90812622  0.33550027  0.88083712     0.29000
F2371       F  0.88348332  0.35258077  0.89311186    -0.20400
H2372       H  0.90457499  0.35879930  0.83341071     0.17400
H2373       H  0.96385057  0.27912290  0.90343938     0.17400
F2374       F  0.98488225  0.28494135  0.84310095    -0.20400
C2375       C  0.93037730  0.30735280  0.64823850    -0.21800
C2376       C  0.94858963  0.33583706  0.64469798    -0.09800
C2377       C  0.95059604  0.34968471  0.61270135     0.29000
C2378       C  0.93753112  0.33340926  0.58484231    -0.21800
C2379       C  0.91968398  0.30461321  0.58844646    -0.09900
C2380       C  0.91496479  0.29288529  0.62090620     0.29000
F2381       F  0.89419817  0.26858735  0.62690373    -0.20400
H2382       H  0.92654675  0.29704113  0.67261028     0.17400
H2383       H  0.93978486  0.34450894  0.56057023     0.17400
F2384       F  0.96331269  0.37984539  0.60836412    -0.20400
C2385       C  0.94151777  0.20957886  0.88624465    -0.21800
C2386       C  0.94029398  0.19135669  0.91574478    -0.09800
C2387       C  0.94821319  0.15794704  0.91495116     0.29000
C2388       C  0.95648090  0.14325904  0.88475939    -0.21800
C2389       C  0.95789827  0.16183708  0.85522000    -0.09900
C2390       C  0.95055053  0.19532950  0.85646815     0.29000
F2391       F  0.95033356  0.21408136  0.82863775    -0.20400
H2392       H  0.93288477  0.23447660  0.88568490     0.17400
H2393       H  0.96074084  0.11705413  0.88430024     0.17400
F2394       F  0.94491567  0.13894195  0.94233029    -0.20400
C2395       C  0.94496209  0.20818015  0.61064358    -0.21800
C2396       C  0.91245672  0.20678487  0.60435328    -0.09800
C2397       C  0.89257879  0.19446385  0.62903663     0.29000
C2398       C  0.90561335  0.18137777  0.65847025    -0.21800
C2399       C  0.93836345  0.18142724  0.66383242    -0.09900
C2400       C  0.95764524  0.19625800  0.64047220     0.29000
F2401       F  0.98885403  0.19912513  0.64662990    -0.20400
H2402       H  0.96053196  0.21849607  0.59242736     0.17400
H2403       H  0.89036500  0.16989622  0.67628017     0.17400
F2404       F  0.86085748  0.19339684  0.62389586    -0.20400
C2405       C  0.66802800  0.37433403  0.95652091    -0.21800
C2406       C  0.68138216  0.34366346  0.94885274    -0.09800
C2407       C  0.70744440  0.34229386  0.92815745     0.29000
C2408       C  0.71918890  0.37142124  0.91492474    -0.21800
C2409       C  0.70584860  0.40198127  0.92343714    -0.09900
C2410       C  0.68059622  0.40317931  0.94494479     0.29000
F2411       F  0.66611421  0.43195115  0.95237413    -0.20400
H2412       H  0.64673043  0.37609494  0.97069621     0.17400
H2413       H  0.73799057  0.37000322  0.89724521     0.17400
F2414       F  0.71961606  0.31306240  0.91846934    -0.20400
C2415       C  0.66969911  0.12270746  0.97796900    -0.21800
C2416       C  0.68173325  0.15327705  0.96738260    -0.09800
C2417       C  0.70729548  0.15333027  0.94603211     0.29000
C2418       C  0.71919798  0.12365991  0.93413941    -0.21800
C2419       C  0.70584000  0.09314307  0.94287207    -0.09900
C2420       C  0.68161059  0.09292058  0.96592716     0.29000
F2421       F  0.66777954  0.06434395  0.97476486    -0.20400
H2422       H  0.65010453  0.12181818  0.99475192     0.17400
H2423       H  0.73803990  0.12471936  0.91642508     0.17400
F2424       F  0.71936901  0.18192653  0.93473858    -0.20400
C2425       C  0.72955238  0.38970677  0.54552435    -0.21800
C2426       C  0.71175697  0.41904758  0.54574170    -0.09800
C2427       C  0.68001522  0.41770367  0.53603212     0.29000
C2428       C  0.66541817  0.38742666  0.53102460    -0.21800
C2429       C  0.68241412  0.35756892  0.53319358    -0.09900
C2430       C  0.71515378  0.35918875  0.53896027     0.29000
F2431       F  0.73276529  0.33141419  0.54079751    -0.20400
H2432       H  0.75401160  0.39010119  0.55367993     0.17400
H2433       H  0.64018059  0.38755616  0.52643722     0.17400
F2434       F  0.66196235  0.44523752  0.53645585    -0.20400
C2435       C  0.66689722  0.15027870  0.58434094    -0.21800
C2436       C  0.68302831  0.16704911  0.55953733    -0.09800
C2437       C  0.70811045  0.15117520  0.54371432     0.29000
C2438       C  0.71566373  0.11837592  0.55176450    -0.21800
C2439       C  0.69953871  0.10207013  0.57708023    -0.09900
C2440       C  0.67499487  0.11841365  0.59307153     0.29000
F2441       F  0.65842427  0.10321141  0.61708456    -0.20400
H2442       H  0.64683801  0.16156763  0.59614071     0.17400
H2443       H  0.73474210  0.10624993  0.53919335     0.17400
F2444       F  0.72460063  0.16691829  0.52008262    -0.20400
C2445       C  0.58054124  0.28040880  0.87168648    -0.21800
C2446       C  0.57205067  0.29367662  0.90261960    -0.09800
C2447       C  0.55565623  0.32351870  0.90298681     0.29000
C2448       C  0.54962361  0.34031523  0.87313912    -0.21800
C2449       C  0.55968347  0.32768978  0.84227335    -0.09900
C2450       C  0.57445381  0.29694016  0.84188394     0.29000
F2451       F  0.58344637  0.28291380  0.81292057    -0.20400
H2452       H  0.59386286  0.25804415  0.87068922     0.17400
H2453       H  0.53751624  0.36368071  0.87437781     0.17400
F2454       F  0.54787526  0.33781069  0.93222996    -0.20400
C2455       C  0.53321195  0.34422938  0.61956026    -0.21800
C2456       C  0.54384246  0.33507304  0.65180758    -0.09800
C2457       C  0.56799309  0.31145954  0.65417468     0.29000
C2458       C  0.58148989  0.29864775  0.62534418    -0.21800
C2459       C  0.57059859  0.30749938  0.59319800    -0.09900
C2460       C  0.54573620  0.33012772  0.59065370     0.29000
F2461       F  0.53539158  0.34077862  0.56038614    -0.20400
H2462       H  0.51615519  0.36357563  0.61654472     0.17400
H2463       H  0.60168431  0.28272356  0.62821681     0.17400
F2464       F  0.58015316  0.30220155  0.68421936    -0.20400
C2465       C  0.57625705  0.17824548  0.85227409    -0.21800
C2466       C  0.55062430  0.15715898  0.85447778    -0.09800
C2467       C  0.54050797  0.14772043  0.88634037     0.29000
C2468       C  0.55286015  0.16324250  0.91506319    -0.21800
C2469       C  0.57776645  0.18560214  0.91249401    -0.09900
C2470       C  0.59076352  0.19077633  0.88075892     0.29000
F2471       F  0.61826024  0.20715900  0.87684127    -0.20400
H2472       H  0.58623220  0.18383099  0.82836544     0.17400
H2473       H  0.54400099  0.15673699  0.93921971     0.17400
F2474       F  0.51976272  0.12282950  0.88989525    -0.20400
C2475       C  0.54294137  0.16948925  0.62795981    -0.21800
C2476       C  0.55386740  0.17829488  0.66013775    -0.09800
C2477       C  0.57882331  0.20058155  0.66360271     0.29000
C2478       C  0.59193483  0.21410903  0.63514895    -0.21800
C2479       C  0.57941760  0.20670544  0.60314444    -0.09900
C2480       C  0.55492988  0.18396015  0.59990896     0.29000
F2481       F  0.54348099  0.17431591  0.56962612    -0.20400
H2482       H  0.52441512  0.15147575  0.62430360     0.17400
H2483       H  0.61235105  0.22976235  0.63820567     0.17400
F2484       F  0.59166042  0.20776751  0.69398941    -0.20400
O2485       O  0.58190165  0.71567167  0.04533311    -0.80600
O2486       O  0.57734920  0.78308349  0.46080793    -0.80700
O2487       O  0.61904470  0.79430443  0.06957150    -0.80700
O2488       O  0.61841763  0.71300163  0.43796796    -0.80600
O2489       O  0.57778238  0.79193241  0.03499147    -0.80700
O2490       O  0.57807950  0.70574045  0.47047870    -0.80700
O2491       O  0.61821440  0.77487369  0.42851107    -0.80600
O2492       O  0.62260861  0.73136516  0.07678453    -0.80700
C2493       C  0.59511844  0.71911142  0.07381611     1.09100
C2494       C  0.58926640  0.78177836  0.43179318     1.08900
C2495       C  0.58944898  0.79690042  0.06424447     1.09100
C2496       C  0.59061304  0.70291708  0.44219690     1.09000
O2497       O  0.63448014  0.68012807  0.48671076    -0.80600
O2498       O  0.63450204  0.82894443  0.02610398    -0.80700
O2499       O  0.67919309  0.72469872  0.04114252    -0.80700
O2500       O  0.67650664  0.78512356  0.46364221    -0.80600
O2501       O  0.63496065  0.81854908  0.46218534    -0.80700
O2502       O  0.63914567  0.68934859  0.03637969    -0.81800
O2503       O  0.67526720  0.71143801  0.47354627    -0.80600
O2504       O  0.67698316  0.79808668  0.03280712    -0.80700
Co2505     Co  0.60981644  0.71536012  0.00719941     1.51500
Co2506     Co  0.60600409  0.80214070  0.49632509     1.51700
Co2507     Co  0.64939343  0.76201320  0.05014264     1.51600
Co2508     Co  0.64725301  0.74746306  0.45584227     1.51500
O2509       O  0.62863875  0.75824413  0.00235230    -1.42600
C2510       C  0.66255677  0.68277812  0.47609561     1.09000
C2511       C  0.66418661  0.82654217  0.03055766     1.09100
C2512       C  0.66764003  0.69584317  0.04515146     1.09000
C2513       C  0.66431045  0.81354120  0.45874928     1.09000
O2514       O  0.87195216  0.73553227  0.07121817    -0.80600
O2515       O  0.88913096  0.78159311  0.42845416    -0.80700
O2516       O  0.92888909  0.70522185  0.47037155    -0.80700
O2517       O  0.91384985  0.79538807  0.02987919    -0.80600
O2518       O  0.89301951  0.71626717  0.43086005    -0.80700
O2519       O  0.87702234  0.77379807  0.06340431    -0.80700
O2520       O  0.92056896  0.81439950  0.46022444    -0.80600
O2521       O  0.91361960  0.71058286  0.04807890    -0.80700
C2522       C  0.89754686  0.71796311  0.07349233     1.09100
C2523       C  0.91077396  0.80391435  0.43176560     1.08900
C2524       C  0.92006454  0.70566018  0.43987712     1.09100
C2525       C  0.90303610  0.78994738  0.05889321     1.09000
O2526       O  0.84281020  0.80097393  0.04221159    -0.80600
O2527       O  0.83117779  0.70730075  0.45510921    -0.80700
O2528       O  0.87210649  0.67468474  0.02755707    -0.80700
O2529       O  0.85788359  0.81506279  0.46946817    -0.80600
O2530       O  0.82369786  0.77818111  0.45021308    -0.80700
O2531       O  0.82900054  0.70475989  0.03324575    -0.80600
O2532       O  0.87001167  0.82434720  0.00203681    -0.80600
O2533       O  0.87189179  0.67751190  0.47388411    -0.80700
Co2534     Co  0.84142244  0.75277961  0.03445150     1.51500
Co2535     Co  0.85847247  0.74598142  0.44546635     1.51700
Co2536     Co  0.89397750  0.70962790  0.00354133     1.51600
Co2537     Co  0.89516409  0.78566184  0.48448104     1.51500
O2538       O  0.87018872  0.74954164  0.99576677    -1.42600
C2539       C  0.85309081  0.82652745  0.02815580     1.09000
C2540       C  0.84505956  0.67971739  0.45959419     1.09100
C2541       C  0.84346911  0.67726978  0.03531225     1.09000
C2542       C  0.83124407  0.80792770  0.45540809     1.09000
O2543       O  0.71249966  0.53169007  0.18048824    -0.80600
O2544       O  0.77342521  0.95924993  0.17790155    -0.80700
O2545       O  0.68025187  0.96507726  0.12090266    -0.80700
O2546       O  0.81559273  0.52732164  0.13154872    -0.80600
O2547       O  0.70918626  0.95530162  0.16562621    -0.80700
O2548       O  0.78654748  0.53325937  0.17679497    -0.80700
O2549       O  0.80904480  0.97317226  0.14347329    -0.80600
O2550       O  0.67896803  0.52726007  0.13657279    -0.80700
C2551       C  0.68406102  0.53136046  0.16780327     1.09100
C2552       C  0.80191645  0.96136334  0.17105578     1.08900
C2553       C  0.68275713  0.95394965  0.15033720     1.09100
C2554       C  0.81351705  0.53478958  0.16224009     1.09000
O2555       O  0.77578638  0.56844133  0.11789005    -0.80600
O2556       O  0.72309859  0.93470121  0.09878188    -0.80700
O2557       O  0.71418458  0.54534108  0.07727054    -0.80700
O2558       O  0.81577143  0.97598970  0.07878780    -0.80600
O2559       O  0.78290756  0.94138040  0.10422519    -0.80700
O2560       O  0.71428877  0.57161275  0.12484604    -0.80600
O2561       O  0.77771134  0.53487306  0.07414533    -0.80600
O2562       O  0.71946098  0.97594886  0.06374313    -0.80700
Co2563     Co  0.74726402  0.54705333  0.15026639     1.51500
Co2564     Co  0.74695662  0.95220918  0.13743893     1.51700
Co2565     Co  0.70201461  0.50378093  0.10037409     1.51600
Co2566     Co  0.78606919  0.49845730  0.10605137     1.51500
O2567       O  0.74432201  0.50231592  0.12661184    -1.42600
C2568       C  0.78104548  0.56350876  0.08713983     1.09000
C2569       C  0.72028682  0.94520911  0.06939633     1.09100
C2570       C  0.71027466  0.57169006  0.09361622     1.09000
C2571       C  0.80590412  0.94669149  0.08405048     1.09000
O2572       O  0.68279996  0.52782212  0.37009415    -0.80600
O2573       O  0.81566334  0.98204251  0.36466573    -0.80700
O2574       O  0.78344976  0.54493537  0.32610798    -0.80700
O2575       O  0.70577175  0.96147758  0.32283291    -0.80600
O2576       O  0.81661314  0.52119427  0.36186108    -0.80700
O2577       O  0.67933553  0.97517725  0.36871759    -0.80700
O2578       O  0.78682399  0.95860472  0.32286087    -0.80600
O2579       O  0.71366577  0.54505146  0.32923660    -0.80700
C2580       C  0.68615108  0.53943143  0.34106120     1.09100
C2581       C  0.81358483  0.96474072  0.33745501     1.08900
C2582       C  0.81157177  0.53823991  0.33542981     1.09100
C2583       C  0.67962742  0.96451583  0.33862939     1.09000
O2584       O  0.71339958  0.95857793  0.42078181    -0.80600
O2585       O  0.81649083  0.52492860  0.42588705    -0.80700
O2586       O  0.72186386  0.56942540  0.39411032    -0.80700
O2587       O  0.77216489  0.92829897  0.37329089    -0.80600
O2588       O  0.79208931  0.95801847  0.41577163    -0.80700
O2589       O  0.70951146  0.53282237  0.43195317    -0.80600
O2590       O  0.72581313  0.92862699  0.37635745    -0.80600
O2591       O  0.78494839  0.56079845  0.39720339    -0.80700
Co2592     Co  0.71206241  0.49978896  0.39535925     1.51500
Co2593     Co  0.78641845  0.50465082  0.39769733     1.51700
Co2594     Co  0.75096793  0.55142844  0.36069946     1.51600
Co2595     Co  0.74749177  0.96205247  0.34865396     1.51500
O2596       O  0.74985603  0.50318710  0.37161603    -1.42600
C2597       C  0.71612051  0.93092029  0.40612327     1.09000
C2598       C  0.80638211  0.55417128  0.41982061     1.09100
C2599       C  0.71237645  0.56259578  0.42291153     1.09000
C2600       C  0.78711714  0.93029698  0.40107862     1.09000
O2601       O  0.54366026  0.67115671  0.22078628    -0.80600
O2602       O  0.95990370  0.65860515  0.29268302    -0.80700
O2603       O  0.96287518  0.63956796  0.18869866    -0.80700
O2604       O  0.52361008  0.61394385  0.32543343    -0.80600
O2605       O  0.93361491  0.66822178  0.22565775    -0.80700
O2606       O  0.53941089  0.65765615  0.29681146    -0.80700
O2607       O  0.97702734  0.61646895  0.32359543    -0.80600
O2608       O  0.52651351  0.63577684  0.18279670    -0.80700
C2609       C  0.54039190  0.66232213  0.19049517     1.09100
C2610       C  0.96441248  0.64469922  0.32102120     1.08900
C2611       C  0.94214175  0.66222512  0.19570582     1.09100
C2612       C  0.53651515  0.64225734  0.32432598     1.09000
O2613       O  0.56813020  0.60694744  0.27640634    -0.80600
O2614       O  0.93224319  0.60597626  0.23107089    -0.80700
O2615       O  0.53453687  0.57109242  0.20402523    -0.80700
O2616       O  0.95825532  0.56537989  0.29284701    -0.80600
O2617       O  0.93232757  0.60896845  0.27046511    -0.80700
O2618       O  0.56649221  0.61003970  0.22485335    -0.80600
O2619       O  0.53893772  0.56323119  0.29021373    -0.80600
O2620       O  0.96198794  0.56960139  0.20526083    -0.80700
Co2621     Co  0.53756897  0.63517512  0.25308201     1.51500
Co2622     Co  0.96352671  0.64019198  0.24610947     1.51700
Co2623     Co  0.49645053  0.60280759  0.19896328     1.51600
Co2624     Co  0.99886032  0.58991986  0.28982487     1.51500
O2625       O  0.99853820  0.61318024  0.24828856    -1.42600
C2626       C  0.56587632  0.57759279  0.28689110     1.09000
C2627       C  0.93473919  0.57967891  0.21391278     1.09100
C2628       C  0.56274586  0.58273245  0.20977728     1.09000
C2629       C  0.93256300  0.58163530  0.28745817     1.09000
O2630       O  0.51325983  0.87960011  0.17624900    -0.80600
O2631       O  0.96626330  0.87080153  0.31401552    -0.80700
O2632       O  0.55869527  0.83587914  0.28127883    -0.80700
O2633       O  0.95708091  0.84014492  0.20297682    -0.80600
O2634       O  0.52862166  0.86847283  0.31286449    -0.80700
O2635       O  0.97704496  0.88078454  0.17209822    -0.80700
O2636       O  0.95686407  0.83024898  0.27843056    -0.80600
O2637       O  0.53905935  0.84388108  0.21042646    -0.80700
C2638       C  0.53099405  0.85378128  0.18107683     1.09100
C2639       C  0.95608756  0.84222182  0.30752196     1.08900
C2640       C  0.54868858  0.84462642  0.30995553     1.09100
C2641       C  0.96117950  0.85341174  0.17471507     1.09000
O2642       O  0.94717881  0.92759134  0.20631119    -0.80600
O2643       O  0.52951792  0.93725006  0.29014159    -0.80700
O2644       O  0.56705524  0.88978998  0.23524783    -0.80700
O2645       O  0.92919950  0.89235135  0.27098924    -0.80600
O2646       O  0.95963055  0.93400853  0.28788157    -0.80700
O2647       O  0.54126722  0.91806876  0.19564927    -0.80600
O2648       O  0.92255485  0.88165000  0.21939938    -0.80600
O2649       O  0.56214714  0.90018958  0.26953050    -0.80700
Co2650     Co  0.49467443  0.91724677  0.20451873     1.51500
Co2651     Co  0.49630913  0.90350699  0.29661344     1.51700
Co2652     Co  0.53137827  0.86337432  0.25590874     1.51600
Co2653     Co  0.95851803  0.86495994  0.24478303     1.51500
O2654       O  0.49651203  0.89052336  0.24675518    -1.42600
C2655       C  0.92193669  0.91043086  0.20797512     1.09000
C2656       C  0.55742651  0.92775191  0.28429765     1.09100
C2657       C  0.56699887  0.90770235  0.20880939     1.09000
C2658       C  0.93223054  0.92081029  0.28380851     1.09000
C2659       C  0.87279305  0.96709529  0.33564839    -0.21800
C2660       C  0.84394394  0.95374660  0.32335988    -0.09800
C2661       C  0.84483132  0.93065689  0.29762469     0.29000
C2662       C  0.87359646  0.92161513  0.28427488    -0.21800
C2663       C  0.90242166  0.93554807  0.29568705    -0.09900
C2664       C  0.90166779  0.95859265  0.32159895     0.29000
F2665       F  0.92869800  0.97188982  0.33425762    -0.20400
H2666       H  0.87304909  0.98485980  0.35574350     0.17400
H2667       H  0.87317191  0.90289701  0.26511113     0.17400
F2668       F  0.81808351  0.91602086  0.28591464    -0.20400
C2669       C  0.59337917  0.93927591  0.33173430    -0.21800
C2670       C  0.58561734  0.94501185  0.29822841    -0.09800
C2671       C  0.60876740  0.95865018  0.27788353     0.29000
C2672       C  0.63985214  0.96370709  0.29021654    -0.21800
C2673       C  0.64799588  0.95633525  0.32351385    -0.09900
C2674       C  0.62384797  0.94511870  0.34437058     0.29000
F2675       F  0.62981767  0.93890660  0.37709045    -0.20400
H2676       H  0.57615026  0.92844876  0.34789444     0.17400
H2677       H  0.65723087  0.97422528  0.27407885     0.17400
F2678       F  0.60109789  0.96759854  0.24632515    -0.20400
C2679       C  0.85246325  0.58139664  0.32825197    -0.21800
C2680       C  0.83956717  0.55125298  0.31790231    -0.09800
C2681       C  0.85700631  0.53182591  0.29605188     0.29000
C2682       C  0.88810159  0.54027712  0.28784163    -0.21800
C2683       C  0.90139317  0.56995055  0.29915332    -0.09900
C2684       C  0.88247361  0.59118873  0.31805567     0.29000
F2685       F  0.89324736  0.62131414  0.32718638    -0.20400
H2686       H  0.83947339  0.59716694  0.34484526     0.17400
H2687       H  0.90118575  0.52443105  0.27142268     0.17400
F2688       F  0.84359266  0.50501515  0.28218915    -0.20400
C2689       C  0.62819531  0.53187559  0.33526732    -0.21800
C2690       C  0.65621642  0.54558146  0.32270517    -0.09800
C2691       C  0.65400493  0.56716718  0.29593052     0.29000
C2692       C  0.62430699  0.57579932  0.28321388    -0.21800
C2693       C  0.59632326  0.56238703  0.29613155    -0.09900
C2694       C  0.59866308  0.53981466  0.32194219     0.29000
F2695       F  0.57249957  0.52801620  0.33656026    -0.20400
H2696       H  0.62882450  0.51570938  0.35655709     0.17400
H2697       H  0.62321803  0.59489461  0.26472433     0.17400
F2698       F  0.68001757  0.58208272  0.28403422    -0.20400
C2699       C  0.83656362  0.91428066  0.18036686    -0.21800
C2700       C  0.82754781  0.94570574  0.19051454    -0.09800
C2701       C  0.84946070  0.96493187  0.20831828     0.29000
C2702       C  0.88092858  0.95465977  0.21237890    -0.21800
C2703       C  0.89037882  0.92398521  0.20004283    -0.09900
C2704       C  0.86752654  0.90342172  0.18500845     0.29000
F2705       F  0.87543640  0.87312841  0.17371681    -0.20400
H2706       H  0.81998388  0.89881067  0.16701788     0.17400
H2707       H  0.89752352  0.97006180  0.22605476     0.17400
F2708       F  0.84014072  0.99358498  0.22168982    -0.20400
C2709       C  0.62638991  0.91361146  0.21092728    -0.21800
C2710       C  0.59740232  0.91671669  0.19334005    -0.09800
C2711       C  0.59769322  0.92888506  0.16064904     0.29000
C2712       C  0.62580424  0.93911211  0.14670579    -0.21800
C2713       C  0.65440939  0.93873739  0.16516838    -0.09900
C2714       C  0.65453859  0.92524672  0.19738861     0.29000
F2715       F  0.68154095  0.92388876  0.21606835    -0.20400
H2716       H  0.62706845  0.90359027  0.23584561     0.17400
H2717       H  0.62476402  0.94876122  0.12163449     0.17400
F2718       F  0.57076333  0.93110390  0.14191633    -0.20400
C2719       C  0.87231995  0.52970741  0.16691586    -0.21800
C2720       C  0.84403845  0.54320756  0.17923132    -0.09800
C2721       C  0.84616021  0.56580565  0.20537784     0.29000
C2722       C  0.87581132  0.57588962  0.21753961    -0.21800
C2723       C  0.90426503  0.56317008  0.20464394    -0.09900
C2724       C  0.90201183  0.53922387  0.17963031     0.29000
F2725       F  0.92833127  0.52641291  0.16605567    -0.20400
H2726       H  0.87145746  0.51182362  0.14691703     0.17400
H2727       H  0.87629180  0.59483193  0.23646946     0.17400
F2728       F  0.81978531  0.57966269  0.21778797    -0.20400
C2729       C  0.62792066  0.52114900  0.18520373    -0.21800
C2730       C  0.65529482  0.54104340  0.18651790    -0.09800
C2731       C  0.65123847  0.57411828  0.19478799     0.29000
C2732       C  0.62107722  0.58679772  0.20051204    -0.21800
C2733       C  0.59357641  0.56688406  0.20007367    -0.09900
C2734       C  0.59757835  0.53351153  0.19239442     0.29000
F2735       F  0.57236278  0.51309934  0.19104174    -0.20400
H2736       H  0.62982508  0.49591631  0.17724400     0.17400
H2737       H  0.61944948  0.61290374  0.20544577     0.17400
F2738       F  0.67615550  0.59497589  0.19447994    -0.20400
C2739       C  0.83828902  0.91822123  0.04040899    -0.21800
C2740       C  0.82103341  0.91733092  0.06984822    -0.09800
C2741       C  0.81650681  0.88693705  0.08563760     0.29000
C2742       C  0.82841752  0.85844042  0.07236833    -0.21800
C2743       C  0.84436422  0.85865684  0.04233374    -0.09900
C2744       C  0.84978562  0.88893570  0.02647456     0.29000
F2745       F  0.86485323  0.89013684  0.99707796    -0.20400
H2746       H  0.84182107  0.94123601  0.02764391     0.17400
H2747       H  0.82406275  0.83578663  0.08550946     0.17400
F2748       F  0.79949046  0.88406701  0.11361790    -0.20400
C2749       C  0.80132953  0.65129790  0.06754506    -0.21800
C2750       C  0.82611750  0.64765256  0.04556072    -0.09800
C2751       C  0.83444200  0.61578812  0.03484259     0.29000
C2752       C  0.81780095  0.58825134  0.04591668    -0.21800
C2753       C  0.79379760  0.59199473  0.06906875    -0.09900
C2754       C  0.78604322  0.62396511  0.07996779     0.29000
F2755       F  0.76423025  0.62894581  0.10368478    -0.20400
H2756       H  0.79478430  0.67539008  0.07657522     0.17400
H2757       H  0.82499692  0.56397379  0.03806225     0.17400
F2758       F  0.85885020  0.61116139  0.01408681    -0.20400
C2759       C  0.81541404  0.84221012  0.40769886    -0.21800
C2760       C  0.81244603  0.83555463  0.44165078    -0.09800
C2761       C  0.79992240  0.86007148  0.46228480     0.29000
C2762       C  0.79293998  0.89148930  0.44961896    -0.21800
C2763       C  0.79749968  0.89858986  0.41588453    -0.09900
C2764       C  0.80791624  0.87317080  0.39484760     0.29000
F2765       F  0.81183050  0.87855913  0.36186536    -0.20400
H2766       H  0.82550887  0.82396520  0.39137691     0.17400
H2767       H  0.78321291  0.90994297  0.46591904     0.17400
F2768       F  0.79391716  0.85342163  0.49448763    -0.20400
C2769       C  0.79701548  0.60323311  0.45293887    -0.21800
C2770       C  0.81868840  0.58256043  0.43709674    -0.09800
C2771       C  0.84767521  0.59470280  0.42739460     0.29000
C2772       C  0.85446925  0.62759535  0.43230179    -0.21800
C2773       C  0.83271322  0.64861489  0.44758900    -0.09900
C2774       C  0.80388796  0.63634849  0.45809420     0.29000
F2775       F  0.78314545  0.65588400  0.47410511    -0.20400
H2776       H  0.77426826  0.59384538  0.45997833     0.17400
H2777       H  0.87720034  0.63670270  0.42474295     0.17400
F2778       F  0.86837829  0.57530600  0.41113406    -0.20400
C2779       C  0.91608592  0.84498156  0.34970922    -0.21800
C2780       C  0.94017376  0.82661287  0.33489754    -0.09800
C2781       C  0.95550617  0.80188287  0.35307204     0.29000
C2782       C  0.94779497  0.79677102  0.38625969    -0.21800
C2783       C  0.92409924  0.81551209  0.40105068    -0.09900
C2784       C  0.90802313  0.83942052  0.38255508     0.29000
F2785       F  0.88499225  0.85767455  0.39649457    -0.20400
H2786       H  0.90487481  0.86508006  0.33635502     0.17400
H2787       H  0.96002301  0.77790618  0.40041524     0.17400
F2788       F  0.97899214  0.78411714  0.33934390    -0.20400
C2789       C  0.92900821  0.80885996  0.14831514    -0.21800
C2790       C  0.94820537  0.83657419  0.14446841    -0.09800
C2791       C  0.95147567  0.84940501  0.11219646     0.29000
C2792       C  0.93836672  0.83293696  0.08449342    -0.21800
C2793       C  0.91937557  0.80499191  0.08842994    -0.09900
C2794       C  0.91369601  0.79423258  0.12103114     0.29000
F2795       F  0.89207706  0.77081192  0.12716346    -0.20400
H2796       H  0.92430166  0.79937130  0.17284126     0.17400
H2797       H  0.94153207  0.84329140  0.06001765     0.17400
F2798       F  0.96542994  0.87885914  0.10736881    -0.20400
C2799       C  0.93915041  0.70935805  0.38283180    -0.21800
C2800       C  0.93865005  0.69171039  0.41279373    -0.09800
C2801       C  0.94687247  0.65839676  0.41247358     0.29000
C2802       C  0.95474929  0.64323726  0.38241710    -0.21800
C2803       C  0.95560274  0.66122281  0.35242295    -0.09900
C2804       C  0.94809696  0.69467370  0.35316020     0.29000
F2805       F  0.94810121  0.71301763  0.32506378    -0.20400
H2806       H  0.93030515  0.73416114  0.38190998     0.17400
H2807       H  0.95939118  0.61710012  0.38251152     0.17400
F2808       F  0.94432872  0.63987863  0.44030346    -0.20400
C2809       C  0.94084927  0.70523849  0.11372410    -0.21800
C2810       C  0.90857113  0.70737949  0.10661022    -0.09800
C2811       C  0.88686296  0.69830549  0.13106703     0.29000
C2812       C  0.89760729  0.68533464  0.16145981    -0.21800
C2813       C  0.92995439  0.68159207  0.16760965    -0.09900
C2814       C  0.95138684  0.69298461  0.14420233     0.29000
F2815       F  0.98267907  0.69208261  0.15098934    -0.20400
H2816       H  0.95789054  0.71293614  0.09565737     0.17400
H2817       H  0.88079124  0.67671220  0.17931780     0.17400
F2818       F  0.85534162  0.70041312  0.12492637    -0.20400
C2819       C  0.66841903  0.87333092  0.45552132    -0.21800
C2820       C  0.68211388  0.84262041  0.44864526    -0.09800
C2821       C  0.70868374  0.84120984  0.42863431     0.29000
C2822       C  0.72044992  0.87029488  0.41515351    -0.21800
C2823       C  0.70665386  0.90086221  0.42285426    -0.09900
C2824       C  0.68091140  0.90208475  0.44370350     0.29000
F2825       F  0.66587673  0.93077257  0.45021964    -0.20400
H2826       H  0.64684329  0.87522685  0.46921154     0.17400
H2827       H  0.73966521  0.86884166  0.39798528     0.17400
F2828       F  0.72146275  0.81195568  0.41993653    -0.20400
C2829       C  0.66549935  0.62116942  0.47637421    -0.21800
C2830       C  0.67887189  0.65167720  0.46742364    -0.09800
C2831       C  0.70554019  0.65156295  0.44763922     0.29000
C2832       C  0.71751200  0.62192195  0.43586259    -0.21800
C2833       C  0.70319503  0.59153135  0.44312308    -0.09900
C2834       C  0.67743640  0.59136232  0.46430671     0.29000
F2835       F  0.66223465  0.56295913  0.47107992    -0.20400
H2836       H  0.64486170  0.62038150  0.49172505     0.17400
H2837       H  0.73726224  0.62296456  0.41928538     0.17400
F2838       F  0.71887390  0.68007894  0.43781773    -0.20400
C2839       C  0.72914274  0.89102538  0.04322786    -0.21800
C2840       C  0.71096755  0.92006517  0.04481252    -0.09800
C2841       C  0.67879882  0.91825570  0.03702784     0.29000
C2842       C  0.66440502  0.88779908  0.03264207    -0.21800
C2843       C  0.68189308  0.85820965  0.03345853    -0.09900
C2844       C  0.71484878  0.86032817  0.03719213     0.29000
F2845       F  0.73293603  0.83284901  0.03733405    -0.20400
H2846       H  0.75398805  0.89174802  0.04994179     0.17400
H2847       H  0.63899970  0.88756673  0.02948277     0.17400
F2848       F  0.66038894  0.94545929  0.03891568    -0.20400
C2849       C  0.66882652  0.65242304  0.08619664    -0.21800
C2850       C  0.68470727  0.66812988  0.06053923    -0.09800
C2851       C  0.70893888  0.65116927  0.04439731     0.29000
C2852       C  0.71546299  0.61817501  0.05257041    -0.21800
C2853       C  0.69942966  0.60280987  0.07852993    -0.09900
C2854       C  0.67604143  0.62039213  0.09514698     0.29000
F2855       F  0.65950130  0.60616594  0.11977162    -0.20400
H2856       H  0.64939845  0.66457465  0.09829575     0.17400
H2857       H  0.73378302  0.60517429  0.03962529     0.17400
F2858       F  0.72561770  0.66608517  0.02037881    -0.20400
C2859       C  0.58593969  0.78377136  0.37014743    -0.21800
C2860       C  0.57281641  0.79291370  0.40081587    -0.09800
C2861       C  0.55004884  0.81784492  0.40080125     0.29000
C2862       C  0.54242956  0.83443229  0.37112951    -0.21800
C2863       C  0.55717039  0.82637754  0.34085824    -0.09900
C2864       C  0.57810857  0.79986248  0.34058516     0.29000
F2865       F  0.59207062  0.79014536  0.31212945    -0.20400
H2866       H  0.60431392  0.76560358  0.36921208     0.17400
H2867       H  0.52534155  0.85414889  0.37212215     0.17400
F2868       F  0.53703168  0.82794434  0.42962438    -0.20400
C2869       C  0.53486782  0.84729160  0.11855395    -0.21800
C2870       C  0.54312971  0.83627148  0.15091018    -0.09800
C2871       C  0.56526404  0.81061425  0.15368364     0.29000
C2872       C  0.57905189  0.79743496  0.12518529    -0.21800
C2873       C  0.57028175  0.80793730  0.09295028    -0.09900
C2874       C  0.54756729  0.83285782  0.08991403     0.29000
F2875       F  0.53973008  0.84528247  0.05956263    -0.20400
H2876       H  0.51967910  0.86827763  0.11533506     0.17400
H2877       H  0.59779052  0.77978857  0.12841878     0.17400
F2878       F  0.57513985  0.79942937  0.18392501    -0.20400
C2879       C  0.57382907  0.67922600  0.35285914    -0.21800
C2880       C  0.54920039  0.65693433  0.35534182    -0.09800
C2881       C  0.53909184  0.64769718  0.38726012     0.29000
C2882       C  0.55109388  0.66377674  0.41581349    -0.21800
C2883       C  0.57535217  0.68686510  0.41295598    -0.09900
C2884       C  0.58774152  0.69271562  0.38111875     0.29000
F2885       F  0.61445625  0.71026847  0.37694445    -0.20400
H2886       H  0.58360173  0.68504333  0.32890940     0.17400
H2887       H  0.54260462  0.65706603  0.44006790     0.17400
F2888       F  0.51866321  0.62253571  0.39103150    -0.20400
C2889       C  0.54189685  0.67195553  0.12985515    -0.21800
C2890       C  0.55365205  0.68014210  0.16198474    -0.09800
C2891       C  0.57979499  0.70099910  0.16483315     0.29000
C2892       C  0.59339043  0.71342276  0.13599462    -0.21800
C2893       C  0.58034358  0.70637635  0.10406778    -0.09900
C2894       C  0.55459815  0.68513920  0.10142400     0.29000
F2895       F  0.54259533  0.67554375  0.07134869    -0.20400
H2896       H  0.52273696  0.65465595  0.12640032     0.17400
H2897       H  0.61455908  0.72804651  0.13870904     0.17400
F2898       F  0.59330368  0.70773887  0.19499779    -0.20400
O2899       O  0.58063220  0.71707168  0.54503132    -0.80600
O2900       O  0.57722493  0.78253020  0.96186576    -0.80700
O2901       O  0.61888271  0.79443286  0.56909755    -0.80700
O2902       O  0.61978135  0.71301180  0.93764240    -0.80600
O2903       O  0.57751365  0.79250374  0.53459004    -0.80700
O2904       O  0.57967945  0.70442603  0.97012083    -0.80700
O2905       O  0.61759452  0.77498595  0.92864833    -0.80600
O2906       O  0.62173937  0.73158972  0.57647481    -0.80700
C2907       C  0.59404770  0.71989521  0.57341723     1.09100
C2908       C  0.58865930  0.78159158  0.93267851     1.08900
C2909       C  0.58927283  0.79703652  0.56394469     1.09100
C2910       C  0.59233116  0.70196177  0.94182517     1.09000
O2911       O  0.63676768  0.68068351  0.98655704    -0.80600
O2912       O  0.63463951  0.82884247  0.52577377    -0.80700
O2913       O  0.67823444  0.72399727  0.54103899    -0.80700
O2914       O  0.67615340  0.78631372  0.96353597    -0.80600
O2915       O  0.63418405  0.81904939  0.96227152    -0.80700
O2916       O  0.63761945  0.68931463  0.53648733    -0.81800
O2917       O  0.67675699  0.71299213  0.97313508    -0.80600
O2918       O  0.67684611  0.79757053  0.53269805    -0.80700
Co2919     Co  0.60864247  0.71577200  0.50726045     1.51500
Co2920     Co  0.60592335  0.80201481  0.99677988     1.51700
Co2921     Co  0.64890925  0.76179315  0.54994597     1.51600
Co2922     Co  0.64766247  0.74818553  0.95568773     1.51500
O2923       O  0.62819622  0.75817707  0.50222319    -1.42600
C2924       C  0.66475986  0.68404984  0.97589472     1.09000
C2925       C  0.66427608  0.82614808  0.53045769     1.09100
C2926       C  0.66628114  0.69529408  0.54502490     1.09000
C2927       C  0.66355151  0.81448718  0.95867353     1.09000
O2928       O  0.87364213  0.73415251  0.57071290    -0.80600
O2929       O  0.89009930  0.78035652  0.92863304    -0.80700
O2930       O  0.92936665  0.70485191  0.97296077    -0.80700
O2931       O  0.91378615  0.79565173  0.52979057    -0.80600
O2932       O  0.89405281  0.71505430  0.93259151    -0.80700
O2933       O  0.87779917  0.77296576  0.56355662    -0.80700
O2934       O  0.92143800  0.81340316  0.96023586    -0.80600
O2935       O  0.91495527  0.71028078  0.54580928    -0.80700
C2936       C  0.89966376  0.71713841  0.57188771     1.09100
C2937       C  0.91187005  0.80256641  0.93183753     1.08900
C2938       C  0.92104241  0.70481113  0.94233181     1.09100
C2939       C  0.90346358  0.78962010  0.55890839     1.09000
O2940       O  0.84323685  0.80006041  0.54325777    -0.80600
O2941       O  0.83176852  0.70654692  0.95583366    -0.80700
O2942       O  0.87266166  0.67432400  0.52600695    -0.80700
O2943       O  0.85843143  0.81458501  0.96888881    -0.80600
O2944       O  0.82441778  0.77742201  0.94982231    -0.80700
O2945       O  0.82956802  0.70414730  0.53264570    -0.80600
O2946       O  0.86934089  0.82396144  0.50253551    -0.80600
O2947       O  0.87219665  0.67695381  0.97559175    -0.80700
Co2948     Co  0.84214024  0.75194061  0.53483339     1.51500
Co2949     Co  0.85922205  0.74506260  0.94593224     1.51700
Co2950     Co  0.89411911  0.70965977  0.50190194     1.51600
Co2951     Co  0.89547068  0.78531881  0.98459090     1.51500
O2952       O  0.87012065  0.74961190  0.49532140    -1.42600
C2953       C  0.85279448  0.82578481  0.52893367     1.09000
C2954       C  0.84558625  0.67899789  0.96078627     1.09100
C2955       C  0.84410795  0.67671456  0.53420838     1.09000
C2956       C  0.83181785  0.80724104  0.95491803     1.09000
O2957       O  0.71318614  0.53225588  0.67987173    -0.80600
O2958       O  0.77465122  0.95956729  0.67793899    -0.80700
O2959       O  0.68073721  0.96592873  0.62197683    -0.80700
O2960       O  0.81628503  0.52664423  0.63133644    -0.80600
O2961       O  0.70999227  0.95638094  0.66660253    -0.80700
O2962       O  0.78702334  0.53285849  0.67641529    -0.80700
O2963       O  0.80992568  0.97282836  0.64287488    -0.80600
O2964       O  0.67975170  0.52792278  0.63592871    -0.80700
C2965       C  0.68477989  0.53199314  0.66714518     1.09100
C2966       C  0.80306811  0.96103376  0.67051539     1.08900
C2967       C  0.68342162  0.95511149  0.65155372     1.09100
C2968       C  0.81407990  0.53404859  0.66204291     1.09000
O2969       O  0.77701006  0.56806644  0.61736004    -0.80600
O2970       O  0.72287175  0.93465170  0.59993112    -0.80700
O2971       O  0.71500662  0.54476543  0.57652120    -0.80700
O2972       O  0.81591218  0.97534761  0.57838749    -0.80600
O2973       O  0.78274543  0.94138687  0.60428287    -0.80700
O2974       O  0.71554221  0.57176751  0.62375606    -0.80600
O2975       O  0.77841633  0.53441606  0.57369618    -0.80600
O2976       O  0.71988553  0.97529832  0.56420386    -0.80700
Co2977     Co  0.74814344  0.54710610  0.64966148     1.51500
Co2978     Co  0.74739209  0.95256177  0.63795458     1.51700
Co2979     Co  0.70264729  0.50364459  0.60026477     1.51600
Co2980     Co  0.78664572  0.49802749  0.60567877     1.51500
O2981       O  0.74498531  0.50222980  0.62642286    -1.42600
C2982       C  0.78198524  0.56305755  0.58657120     1.09000
C2983       C  0.72039290  0.94466012  0.57034981     1.09100
C2984       C  0.71121343  0.57134094  0.59254127     1.09000
C2985       C  0.80560197  0.94623958  0.58384932     1.09000
O2986       O  0.68299490  0.52920317  0.87064996    -0.80600
O2987       O  0.81551092  0.98029040  0.86513738    -0.80700
O2988       O  0.78351635  0.54280071  0.82564134    -0.80700
O2989       O  0.70546116  0.96198301  0.82301034    -0.80600
O2990       O  0.81630545  0.51900253  0.86186793    -0.80700
O2991       O  0.67917639  0.97654914  0.86877815    -0.80700
O2992       O  0.78655945  0.95722850  0.82323262    -0.80600
O2993       O  0.71389537  0.54501232  0.82923341    -0.80700
C2994       C  0.68634915  0.54029563  0.84140595     1.09100
C2995       C  0.81336497  0.96285296  0.83796063     1.08900
C2996       C  0.81142710  0.53560924  0.83516685     1.09100
C2997       C  0.67936326  0.96560876  0.83877235     1.09000
O2998       O  0.71273933  0.95966662  0.92122488    -0.80600
O2999       O  0.81677581  0.52417303  0.92567460    -0.80700
O3000       O  0.72321143  0.57023070  0.89354915    -0.80700
O3001       O  0.77105013  0.92761544  0.87364826    -0.80600
O3002       O  0.79191632  0.95702562  0.91587766    -0.80700
O3003       O  0.71099368  0.53424515  0.93199060    -0.80600
O3004       O  0.72484298  0.92939100  0.87687677    -0.80600
O3005       O  0.78599138  0.56028236  0.89642173    -0.80700
Co3006     Co  0.71207448  0.50071426  0.89564835     1.51500
Co3007     Co  0.78629199  0.50371086  0.89796253     1.51700
Co3008     Co  0.75163281  0.55100679  0.86024380     1.51600
Co3009     Co  0.74713177  0.96192270  0.84888036     1.51500
O3010       O  0.74979289  0.50297317  0.87180813    -1.42600
C3011       C  0.71522009  0.93194852  0.90663708     1.09000
C3012       C  0.80732000  0.55355488  0.91911859     1.09100
C3013       C  0.71429353  0.56389745  0.92266116     1.09000
C3014       C  0.78636764  0.92938615  0.90124942     1.09000
O3015       O  0.54272788  0.67080027  0.71837114    -0.80600
O3016       O  0.96126932  0.66051878  0.79570694    -0.80700
O3017       O  0.96456246  0.63327288  0.68137189    -0.80700
O3018       O  0.52391599  0.61495255  0.82397696    -0.80600
O3019       O  0.95236389  0.67024501  0.72031635    -0.80700
O3020       O  0.53960009  0.65909519  0.79595303    -0.80700
O3021       O  0.97736147  0.61664097  0.82412314    -0.80600
O3022       O  0.52781027  0.63301055  0.68112807    -0.80700
C3023       C  0.54047158  0.66049755  0.68843291     1.09100
C3024       C  0.96582408  0.64565278  0.82334200     1.08900
C3025       C  0.95292916  0.66103416  0.69012722     1.09100
C3026       C  0.53699684  0.64321325  0.82326267     1.09000
O3027       O  0.56817113  0.60830488  0.77578429    -0.80600
O3028       O  0.92993754  0.60850352  0.72656590    -0.80700
O3029       O  0.53577412  0.56996843  0.70729257    -0.80700
O3030       O  0.95862601  0.56448919  0.79082958    -0.80600
O3031       O  0.92949626  0.60910178  0.77888713    -0.80700
O3032       O  0.56712499  0.61077689  0.72493020    -0.80600
O3033       O  0.53922310  0.56441652  0.78928176    -0.80600
O3034       O  0.96208207  0.56876362  0.70903129    -0.80700
Co3035     Co  0.53755076  0.63657185  0.75213812     1.51500
Co3036     Co  0.95941567  0.63587004  0.75317186     1.51700
Co3037     Co  0.49746459  0.60044863  0.69839939     1.51600
Co3038     Co  0.99903506  0.59102184  0.78824949     1.51500
O3039       O  0.99847037  0.61529571  0.74626362    -1.42600
C3040       C  0.56609837  0.57902649  0.78658471     1.09000
C3041       C  0.93406225  0.58006720  0.71411299     1.09100
C3042       C  0.56378513  0.58260912  0.71139288     1.09000
C3043       C  0.93188899  0.57982603  0.78998197     1.09000
O3044       O  0.51397408  0.87843959  0.67721961    -0.80600
O3045       O  0.96791765  0.86852173  0.81455106    -0.80700
O3046       O  0.56077358  0.83609921  0.78242121    -0.80700
O3047       O  0.95782180  0.83895291  0.70325240    -0.80600
O3048       O  0.53017528  0.86850542  0.81359086    -0.80700
O3049       O  0.97780201  0.87982905  0.67269251    -0.80700
O3050       O  0.95889053  0.82823261  0.77850644    -0.80600
O3051       O  0.54053748  0.84329238  0.71137599    -0.80700
C3052       C  0.53195706  0.85283634  0.68203709     1.09100
C3053       C  0.95839628  0.83973290  0.80780639     1.08900
C3054       C  0.55080186  0.84517921  0.81101067     1.09100
C3055       C  0.96183586  0.85247422  0.67509382     1.09000
O3056       O  0.94810373  0.92649216  0.70747633    -0.80600
O3057       O  0.52920565  0.93705991  0.79070950    -0.80700
O3058       O  0.56807212  0.88998608  0.73636650    -0.80700
O3059       O  0.92962873  0.88954695  0.77212979    -0.80600
O3060       O  0.95941802  0.93182779  0.78862443    -0.80700
O3061       O  0.54210326  0.91719575  0.69613580    -0.80600
O3062       O  0.92343457  0.88048554  0.72028861    -0.80600
O3063       O  0.56266075  0.90064205  0.77035660    -0.80700
Co3064     Co  0.49553262  0.91616729  0.70531655     1.51500
Co3065     Co  0.49690808  0.90237977  0.79726548     1.51700
Co3066     Co  0.53280615  0.86291264  0.75685059     1.51600
Co3067     Co  0.95954544  0.86339962  0.74529842     1.51500
O3068       O  0.49740615  0.88935194  0.74745536    -1.42600
C3069       C  0.92285763  0.90935492  0.70907552     1.09000
C3070       C  0.55732750  0.92817279  0.78496369     1.09100
C3071       C  0.56791309  0.90750210  0.70967103     1.09000
C3072       C  0.93223234  0.91808376  0.78489276     1.09000
C3073       C  0.87260009  0.96480346  0.83619282    -0.21800
C3074       C  0.84372300  0.95144319  0.82401120    -0.09800
C3075       C  0.84464338  0.92792127  0.79864238     0.29000
C3076       C  0.87347453  0.91852110  0.78552666    -0.21800
C3077       C  0.90229026  0.93257195  0.79680582    -0.09900
C3078       C  0.90148636  0.95601868  0.82234184     0.29000
F3079       F  0.92849582  0.96957270  0.83475758    -0.20400
H3080       H  0.87287339  0.98287965  0.85599974     0.17400
H3081       H  0.87312331  0.89961675  0.76653909     0.17400
F3082       F  0.81786285  0.91324546  0.78708616    -0.20400
C3083       C  0.59334217  0.93967908  0.83230359    -0.21800
C3084       C  0.58516205  0.94597665  0.79899446    -0.09800
C3085       C  0.60789729  0.96044685  0.77870496     0.29000
C3086       C  0.63907631  0.96556294  0.79077934    -0.21800
C3087       C  0.64766511  0.95750177  0.82380520    -0.09900
C3088       C  0.62386233  0.94566323  0.84471810     0.29000
F3089       F  0.63027510  0.93891319  0.87724394    -0.20400
H3090       H  0.57644099  0.92823499  0.84841979     0.17400
H3091       H  0.65617758  0.97662664  0.77468122     0.17400
F3092       F  0.59979792  0.96987079  0.74737694    -0.20400
C3093       C  0.85288709  0.57732101  0.83093690    -0.21800
C3094       C  0.83954286  0.54836057  0.81836992    -0.09800
C3095       C  0.85709702  0.52918229  0.79641190     0.29000
C3096       C  0.88846226  0.53742332  0.78913031    -0.21800
C3097       C  0.90205937  0.56611833  0.80249179    -0.09900
C3098       C  0.88339004  0.58649873  0.82262528     0.29000
F3099       F  0.89465956  0.61565978  0.83418454    -0.20400
H3100       H  0.83985545  0.59256039  0.84799921     0.17400
H3101       H  0.90144637  0.52238653  0.77187795     0.17400
F3102       F  0.84365700  0.50268156  0.78193651    -0.20400
C3103       C  0.62830175  0.53308820  0.83546442    -0.21800
C3104       C  0.65642298  0.54681325  0.82315896    -0.09800
C3105       C  0.65433547  0.56898040  0.79690144     0.29000
C3106       C  0.62469459  0.57814193  0.78447396    -0.21800
C3107       C  0.59660802  0.56419841  0.79656008    -0.09900
C3108       C  0.59881336  0.54115793  0.82198398     0.29000
F3109       F  0.57255770  0.52893192  0.83605926    -0.20400
H3110       H  0.62884992  0.51667041  0.85655163     0.17400
H3111       H  0.62376331  0.59797391  0.76684119     0.17400
F3112       F  0.68044006  0.58397952  0.78532565    -0.20400
C3113       C  0.83854365  0.91414739  0.67792131    -0.21800
C3114       C  0.82884508  0.94492836  0.68942250    -0.09800
C3115       C  0.85006732  0.96355288  0.70877468     0.29000
C3116       C  0.88138978  0.95312898  0.71385918    -0.21800
C3117       C  0.89140959  0.92297328  0.70073952    -0.09900
C3118       C  0.86932235  0.90310423  0.68362257     0.29000
F3119       F  0.87791378  0.87346515  0.67118278    -0.20400
H3120       H  0.82273209  0.89940411  0.66275211     0.17400
H3121       H  0.89747265  0.96810094  0.72868099     0.17400
F3122       F  0.84038053  0.99206453  0.72213893    -0.20400
C3123       C  0.62699585  0.91600875  0.71296630    -0.21800
C3124       C  0.59831624  0.91707771  0.69455194    -0.09800
C3125       C  0.59889306  0.92778272  0.66137203     0.29000
C3126       C  0.62695884  0.93834940  0.64758046    -0.21800
C3127       C  0.65515752  0.93999248  0.66669103    -0.09900
C3128       C  0.65499672  0.92823813  0.69959795     0.29000
F3129       F  0.68152214  0.92916812  0.71907471    -0.20400
H3130       H  0.62748371  0.90709261  0.73831091     0.17400
H3131       H  0.62616826  0.94660090  0.62199549     0.17400
F3132       F  0.57230437  0.92804517  0.64196178    -0.20400
C3133       C  0.87290053  0.52899937  0.66692567    -0.21800
C3134       C  0.84446989  0.54208801  0.67935067    -0.09800
C3135       C  0.84624664  0.56390922  0.70616531     0.29000
C3136       C  0.87569962  0.57398411  0.71868625    -0.21800
C3137       C  0.90426243  0.56238055  0.70514802    -0.09900
C3138       C  0.90246017  0.53871222  0.67985328     0.29000
F3139       F  0.92900753  0.52665705  0.66607055    -0.20400
H3140       H  0.87225789  0.51150704  0.64656959     0.17400
H3141       H  0.87600161  0.59223972  0.73831680     0.17400
F3142       F  0.81971236  0.57711617  0.71888889    -0.20400
C3143       C  0.62811940  0.52204156  0.68247208    -0.21800
C3144       C  0.65591483  0.54111753  0.68594707    -0.09800
C3145       C  0.65250222  0.57341366  0.69712285     0.29000
C3146       C  0.62252656  0.58614413  0.70371102    -0.21800
C3147       C  0.59466922  0.56678242  0.70173042    -0.09900
C3148       C  0.59804308  0.53420750  0.69088065     0.29000
F3149       F  0.57238636  0.51465347  0.68692686    -0.20400
H3150       H  0.62943908  0.49789382  0.67152263     0.17400
H3151       H  0.62135338  0.61190369  0.71033601     0.17400
F3152       F  0.67781053  0.59375854  0.69863963    -0.20400
C3153       C  0.83872833  0.91743844  0.54128050    -0.21800
C3154       C  0.82017803  0.91658918  0.56977422    -0.09800
C3155       C  0.81422313  0.88611429  0.58491351     0.29000
C3156       C  0.82609963  0.85751962  0.57187869    -0.21800
C3157       C  0.84360949  0.85779396  0.54287752    -0.09900
C3158       C  0.85028436  0.88810633  0.52764252     0.29000
F3159       F  0.86686893  0.88936451  0.49919509    -0.20400
H3160       H  0.84341409  0.94051771  0.52908058     0.17400
H3161       H  0.82057287  0.83480272  0.58437634     0.17400
F3162       F  0.79590376  0.88325860  0.61198716    -0.20400
C3163       C  0.80226375  0.65073517  0.56678823    -0.21800
C3164       C  0.82681664  0.64706699  0.54449659    -0.09800
C3165       C  0.83479222  0.61523543  0.53343334     0.29000
C3166       C  0.81822045  0.58771573  0.54470789    -0.21800
C3167       C  0.79456293  0.59148322  0.56826670    -0.09900
C3168       C  0.78695046  0.62345122  0.57924851     0.29000
F3169       F  0.76523786  0.62846879  0.60306649    -0.20400
H3170       H  0.79589092  0.67481684  0.57598705     0.17400
H3171       H  0.82519543  0.56343542  0.53664502     0.17400
F3172       F  0.85876579  0.61063857  0.51212624    -0.20400
C3173       C  0.81515850  0.84142033  0.90734239    -0.21800
C3174       C  0.81267157  0.83471863  0.94133665    -0.09800
C3175       C  0.80002677  0.85904556  0.96212053     0.29000
C3176       C  0.79260505  0.89039771  0.94957195    -0.21800
C3177       C  0.79681254  0.89760256  0.91581117    -0.09900
C3178       C  0.80724709  0.87233184  0.89461371     0.29000
F3179       F  0.81088975  0.87786528  0.86161771    -0.20400
H3180       H  0.82520158  0.82327353  0.89087714     0.17400
H3181       H  0.78288594  0.90873809  0.96600809     0.17400
F3182       F  0.79434445  0.85228131  0.99436943    -0.20400
C3183       C  0.79791076  0.60223706  0.95281219    -0.21800
C3184       C  0.81962792  0.58192214  0.93656552    -0.09800
C3185       C  0.84860789  0.59436961  0.92715457     0.29000
C3186       C  0.85536780  0.62718858  0.93286864    -0.21800
C3187       C  0.83351893  0.64784666  0.94849391    -0.09900
C3188       C  0.80472837  0.63524901  0.95872615     0.29000
F3189       F  0.78393679  0.65435382  0.97517943    -0.20400
H3190       H  0.77514328  0.59269444  0.95959001     0.17400
H3191       H  0.87808200  0.63654037  0.92555384     0.17400
F3192       F  0.86940106  0.57536621  0.91057294    -0.20400
C3193       C  0.91688321  0.84029968  0.84815762    -0.21800
C3194       C  0.94281417  0.82353695  0.83503809    -0.09800
C3195       C  0.95958121  0.80109995  0.85493865     0.29000
C3196       C  0.95108014  0.79651693  0.88800798    -0.21800
C3197       C  0.92549011  0.81376904  0.90108138    -0.09900
C3198       C  0.90829542  0.83549287  0.88094909     0.29000
F3199       F  0.88368399  0.85254861  0.89332318    -0.20400
H3200       H  0.90460871  0.85886284  0.83356930     0.17400
H3201       H  0.96410963  0.77912580  0.90332012     0.17400
F3202       F  0.98501208  0.78508387  0.84294002    -0.20400
C3203       C  0.93047310  0.80744052  0.64827818    -0.21800
C3204       C  0.94868301  0.83592433  0.64471291    -0.09800
C3205       C  0.95076075  0.84969254  0.61268930     0.29000
C3206       C  0.93770071  0.83338060  0.58484572    -0.21800
C3207       C  0.91982168  0.80460776  0.58848184    -0.09900
C3208       C  0.91509418  0.79291987  0.62095511     0.29000
F3209       F  0.89435040  0.76860524  0.62697399    -0.20400
H3210       H  0.92661622  0.79716816  0.67266185     0.17400
H3211       H  0.93998289  0.84443733  0.56055719     0.17400
F3212       F  0.96353282  0.87981841  0.60830815    -0.20400
C3213       C  0.94176675  0.70938507  0.88634049    -0.21800
C3214       C  0.94036556  0.69111568  0.91579506    -0.09800
C3215       C  0.94805566  0.65764869  0.91494599     0.29000
C3216       C  0.95626933  0.64295351  0.88474075    -0.21800
C3217       C  0.95784991  0.66157357  0.85524297    -0.09900
C3218       C  0.95073818  0.69511931  0.85654848     0.29000
F3219       F  0.95071754  0.71392587  0.82876028    -0.20400
H3220       H  0.93332240  0.73435223  0.88582677     0.17400
H3221       H  0.96038437  0.61672349  0.88424020     0.17400
F3222       F  0.94459406  0.63862093  0.94228279    -0.20400
C3223       C  0.94500788  0.70822654  0.61077924    -0.21800
C3224       C  0.91251102  0.70674841  0.60445250    -0.09800
C3225       C  0.89263701  0.69433728  0.62909122     0.29000
C3226       C  0.90567441  0.68121717  0.65850252    -0.21800
C3227       C  0.93841851  0.68134371  0.66389744    -0.09900
C3228       C  0.95769017  0.69629127  0.64060413     0.29000
F3229       F  0.98888092  0.69927010  0.64682983    -0.20400
H3230       H  0.96056673  0.71862547  0.59260053     0.17400
H3231       H  0.89043646  0.66965531  0.67627018     0.17400
F3232       F  0.86092118  0.69320794  0.62392043    -0.20400
C3233       C  0.66765462  0.87432231  0.95612134    -0.21800
C3234       C  0.68106547  0.84365339  0.94855530    -0.09800
C3235       C  0.70726776  0.84228198  0.92805409     0.29000
C3236       C  0.71912227  0.87140978  0.91493496    -0.21800
C3237       C  0.70573364  0.90196791  0.92336168    -0.09900
C3238       C  0.68031356  0.90316622  0.94465072     0.29000
F3239       F  0.66578904  0.93194228  0.95197357    -0.20400
H3240       H  0.64628451  0.87608925  0.97018014     0.17400
H3241       H  0.73805402  0.86999615  0.89740935     0.17400
F3242       F  0.71950598  0.81305054  0.91845928    -0.20400
C3243       C  0.66974231  0.62273567  0.97790828    -0.21800
C3244       C  0.68170123  0.65331644  0.96726297    -0.09800
C3245       C  0.70724957  0.65338922  0.94588893     0.29000
C3246       C  0.71920246  0.62372336  0.93402783    -0.21800
C3247       C  0.70589835  0.59319209  0.94280204    -0.09900
C3248       C  0.68169996  0.59295572  0.96589498     0.29000
F3249       F  0.66794204  0.56436311  0.97480375    -0.20400
H3250       H  0.65016882  0.62182909  0.99471724     0.17400
H3251       H  0.73803005  0.62479411  0.91629719     0.17400
F3252       F  0.71925388  0.68199416  0.93453581    -0.20400
C3253       C  0.72936014  0.88988845  0.54552096    -0.21800
C3254       C  0.71149439  0.91917351  0.54595157    -0.09800
C3255       C  0.67966280  0.91774566  0.53661389     0.29000
C3256       C  0.66510483  0.88743644  0.53171647    -0.21800
C3257       C  0.68220652  0.85762979  0.53363331    -0.09900
C3258       C  0.71498607  0.85933786  0.53906669     0.29000
F3259       F  0.73269325  0.83161607  0.54062267    -0.20400
H3260       H  0.75389324  0.89035194  0.55339505     0.17400
H3261       H  0.63983453  0.88749837  0.52735771     0.17400
F3262       F  0.66154328  0.94522568  0.53728235    -0.20400
C3263       C  0.66710056  0.65037202  0.58456558    -0.21800
C3264       C  0.68318890  0.66705491  0.55967248    -0.09800
C3265       C  0.70815879  0.65106466  0.54376823     0.29000
C3266       C  0.71562143  0.61823712  0.55181025    -0.21800
C3267       C  0.69952581  0.60200759  0.57719940    -0.09900
C3268       C  0.67511127  0.61847781  0.59328729     0.29000
F3269       F  0.65856218  0.60336503  0.61737325    -0.20400
H3270       H  0.64711964  0.66174598  0.59642897     0.17400
H3271       H  0.73461976  0.60603221  0.53918042     0.17400
F3272       F  0.72464338  0.66673647  0.52008580    -0.20400
C3273       C  0.57999973  0.78021833  0.87164925    -0.21800
C3274       C  0.57163688  0.79355854  0.90259066    -0.09800
C3275       C  0.55538685  0.82348603  0.90296797     0.29000
C3276       C  0.54944347  0.84032414  0.87312732    -0.21800
C3277       C  0.55944153  0.82765100  0.84225825    -0.09900
C3278       C  0.57400086  0.79679263  0.84185206     0.29000
F3279       F  0.58287021  0.78269855  0.81287714    -0.20400
H3280       H  0.59317043  0.75776001  0.87064245     0.17400
H3281       H  0.53746601  0.86376170  0.87437486     0.17400
F3282       F  0.54768044  0.83781503  0.93221628    -0.20400
C3283       C  0.53336892  0.84459621  0.61950959    -0.21800
C3284       C  0.54375568  0.83518872  0.65176910    -0.09800
C3285       C  0.56757492  0.81121590  0.65415376     0.29000
C3286       C  0.58100393  0.79829023  0.62533835    -0.21800
C3287       C  0.57036978  0.80740462  0.59318205    -0.09900
C3288       C  0.54582460  0.83040444  0.59060974     0.29000
F3289       F  0.53576751  0.84131724  0.56033766    -0.20400
H3290       H  0.51658045  0.86420335  0.61648633     0.17400
H3291       H  0.60097223  0.78207121  0.62823468     0.17400
F3292       F  0.57948552  0.80167905  0.68421321    -0.20400
C3293       C  0.57607876  0.67807113  0.85223362    -0.21800
C3294       C  0.55047483  0.65695188  0.85445007    -0.09800
C3295       C  0.54034267  0.64754174  0.88631461     0.29000
C3296       C  0.55267406  0.66310032  0.91502717    -0.21800
C3297       C  0.57756615  0.68547621  0.91244239    -0.09900
C3298       C  0.59055906  0.69064693  0.88070500     0.29000
F3299       F  0.61802045  0.70709082  0.87676682    -0.20400
H3300       H  0.58605327  0.68365461  0.82832403     0.17400
H3301       H  0.54381240  0.65661129  0.93918716     0.17400
F3302       F  0.51960141  0.62264823  0.88988082    -0.20400
C3303       C  0.54284778  0.66940964  0.62800338    -0.21800
C3304       C  0.55386818  0.67808323  0.66018238    -0.09800
C3305       C  0.57894364  0.70021863  0.66366428     0.29000
C3306       C  0.59208102  0.71373862  0.63522465    -0.21800
C3307       C  0.57947279  0.70648448  0.60322127    -0.09900
C3308       C  0.55486306  0.68388405  0.59996773     0.29000
F3309       F  0.54330291  0.67439354  0.56968026    -0.20400
H3310       H  0.52422827  0.65150094  0.62434036     0.17400
H3311       H  0.61257755  0.72928252  0.63829115     0.17400
F3312       F  0.59186832  0.70725176  0.69404818    -0.20400
loop_ 
_geom_bond_atom_site_label_1 
_geom_bond_atom_site_label_2 
_geom_bond_distance 
_geom_bond_site_symmetry_2 
_ccdc_geom_bond_type 
O1            C9   1.271       .  A
O1          Co21   1.958       .  S
O2           C10   1.282       .  A
O2          Co22   2.008       .  S
O3           C11   1.274       .  A
O3          Co23   2.008       .  S
O4           C12   1.265       .  A
O4          Co24   1.985       .  S
O5           C11   1.281       .  A
O5         Co436   2.010   1_554  S
O6           C12   1.271       .  A
O6         Co435   1.987       .  S
O7           C10   1.270       .  A
O7          Co24   1.981       .  S
O8            C9   1.272       .  A
O8          Co23   2.016       .  S
C9          C409   1.477       .  S
C10         C376   1.485       .  S
C11         C389   1.494       .  S
C12         C399   1.480       .  S
O13          C26   1.279       .  A
O13        Co435   2.006       .  S
O14          C27   1.272       .  A
O14        Co436   1.998   1_554  S
O15          C28   1.287       .  A
O15         Co23   2.013       .  S
O16          C29   1.282       .  A
O16         Co24   1.994       .  S
O17          C29   1.272       .  A
O17         Co22   1.981       .  S
O18          C28   1.280       .  A
O18         Co21   1.997       .  S
O19          C26   1.292       .  A
O19         Co24   2.010       .  S
O20          C27   1.282       .  A
O20         Co23   2.016       .  S
Co21        O420   1.992   1_554  S
Co21        O427   2.005   1_554  S
Co21         O25   1.935       .  S
Co22        O419   2.017       .  S
Co22        O428   1.999       .  S
Co22        O439   2.035       .  S
Co23         O25   2.101       .  S
Co24        O439   2.093       .  S
O25        Co436   2.037   1_554  S
O25        Co438   2.098   1_554  S
C26         C346   1.487       .  S
C27         C359   1.497       .  S
C28         C366   1.471       .  S
C29         C336   1.469       .  S
O30          C38   1.302       .  A
O30         Co50   2.068       .  S
O31          C39   1.298       .  A
O31         Co51   2.078       .  S
O32          C40   1.274       .  A
O32        Co466   1.974       .  S
O33          C41   1.283       .  A
O33        Co467   2.006   1_554  S
O34          C40   1.271       .  A
O34         Co51   1.997       .  S
O35          C41   1.302       .  A
O35         Co50   2.071       .  S
O36          C39   1.281       .  A
O36         Co53   1.882       .  S
O37          C38   1.276       .  A
O37         Co52   1.958       .  S
C38         C326   1.468       .  S
C39         C299   1.450       .  S
C40         C316   1.471       .  S
C41         C309   1.492       .  S
O42          C55   1.269       .  A
O42         Co50   1.988       .  S
O43          C56   1.280       .  A
O43         Co51   2.002       .  S
O44          C57   1.265       .  A
O44         Co52   1.969       .  S
O45          C58   1.286       .  A
O45         Co53   2.064       .  S
O46          C58   1.270       .  A
O46         Co51   1.985       .  S
O47          C57   1.279       .  A
O47         Co50   2.027       .  S
O48          C55   1.288       .  A
O48        Co467   2.052   1_554  S
O49          C56   1.267       .  A
O49        Co466   1.954       .  S
Co50         O54   2.002   1_554  S
Co51        O468   2.058       .  S
Co52        O446   1.971   1_554  S
Co52        O463   1.958   1_554  S
Co52         O54   1.936   1_554  S
Co53        O447   2.010       .  S
Co53        O462   2.046       .  S
Co53        O468   1.873       .  S
O54        Co465   2.054       .  S
O54        Co467   1.873       .  S
C55         C259   1.476       .  S
C56         C289   1.449       .  S
C57         C266   1.479       .  S
C58         C276   1.480       .  S
O59          C67   1.300       .  A
O59         Co79   2.032       .  S
O60          C68   1.249       .  A
O60         Co80   1.977       .  S
O61          C69   1.271       .  A
O61        Co909   2.014       .  S
O62          C70   1.274       .  A
O62         Co82   1.985   1_545  S
O63          C69   1.268       .  A
O63         Co80   1.987       .  S
O64          C70   1.298       .  A
O64         Co79   2.038       .  S
O65          C68   1.253       .  A
O65        Co910   2.054       .  S
O66          C67   1.280       .  A
O66         Co81   2.011       .  S
C67         C246   1.500       .  S
C68         C216   1.472       .  S
C69         C229   1.491       .  S
C70         C236   1.490       .  S
O71          C84   1.276       .  A
O71         Co79   2.000       .  S
O72          C85   1.261       .  A
O72         Co80   1.968       .  S
O73          C86   1.269       .  A
O73         Co81   2.008       .  S
O74          C87   1.286       .  A
O74        Co910   1.915       .  S
O75          C87   1.301       .  A
O75         Co80   2.094       .  S
O76          C86   1.263       .  A
O76         Co79   1.986       .  S
O77          C84   1.284       .  A
O77         Co82   1.992   1_545  S
O78          C85   1.274       .  A
O78        Co909   2.006       .  S
Co79         O83   2.056       .  S
Co80        O911   2.087       .  S
Co81        O889   2.013   1_545  S
Co81        O906   2.006   1_545  S
Co81         O83   2.063       .  S
Co82        O893   2.055       .  S
Co82        O902   1.915       .  S
Co82         O83   1.977   1_565  S
O83        Co908   2.088   1_545  S
C84         C269   1.481       .  S
C85         C356   1.469       .  S
C86         C369   1.476       .  S
C87         C256   1.476       .  S
O88          C96   1.272       .  A
O88        Co108   1.957   1_545  S
O89          C97   1.301       .  A
O89        Co937   2.057       .  S
O90          C98   1.272       .  A
O90        Co110   1.996       .  S
O91          C99   1.296       .  A
O91        Co111   2.032       .  S
O92          C98   1.285       .  A
O92        Co109   2.064       .  S
O93          C99   1.284       .  A
O93        Co936   2.003       .  S
O94          C97   1.291       .  A
O94        Co111   1.988       .  S
O95          C96   1.291       .  A
O95        Co110   2.021       .  S
C96         C206   1.477       .  S
C97         C176   1.486       .  S
C98         C196   1.493       .  S
C99         C189   1.498       .  S
O100        C113   1.276       .  A
O100       Co936   1.967       .  S
O101        C114   1.288       .  A
O101       Co109   1.878       .  S
O102        C115   1.266       .  A
O102       Co110   1.983       .  S
O103        C116   1.275       .  A
O103       Co111   1.982       .  S
O104        C116   1.288       .  A
O104       Co937   2.047       .  S
O105        C115   1.275       .  A
O105       Co108   1.995   1_545  S
O106        C113   1.277       .  A
O106       Co111   2.000       .  S
O107        C114   1.300       .  A
O107       Co110   2.069       .  S
Co108       O921   2.002       .  S
Co108       O928   1.967       .  S
Co108       O112   1.890   1_565  S
Co109       O917   2.057   1_545  S
Co109       O932   2.047   1_545  S
Co109       O112   1.854       .  S
Co110       O112   2.017       .  S
Co111       O940   1.912       .  S
O112       Co939   1.912   1_545  S
C113        C339   1.460       .  S
C114        C286   1.440       .  S
C115        C349   1.486       .  S
C116        C279   1.487       .  S
O117        C125   1.273       .  A
O117       Co137   1.983       .  S
O118        C126   1.284       .  A
O118       Co138   2.023       .  S
O119        C127   1.309       .  A
O119      Co1795   2.101       .  S
O120        C128   1.279       .  A
O120      Co1796   2.009   1_455  S
O121        C127   1.287       .  A
O121       Co138   1.884       .  S
O122        C128   1.282       .  A
O122       Co137   1.979       .  S
O123        C126   1.272       .  A
O123       Co140   1.979       .  S
O124        C125   1.267       .  A
O124       Co139   1.975   1_455  S
C125        C406   1.481       .  S
C126        C319   1.483       .  S
C127        C329   1.465       .  S
C128        C396   1.472       .  S
O129        C142   1.274       .  A
O129       Co137   1.958       .  S
O130        C143   1.278       .  A
O130       Co138   2.008       .  S
O131        C144   1.304       .  A
O131       Co139   2.075   1_455  S
O132        C145   1.289       .  A
O132       Co140   2.000       .  S
O133        C145   1.309       .  A
O133       Co138   2.098       .  S
O134        C144   1.274       .  A
O134       Co137   1.973       .  S
O135        C142   1.295       .  A
O135      Co1796   2.017   1_455  S
O136        C143   1.281       .  A
O136      Co1795   2.014       .  S
Co137      O1797   1.890   1_455  S
Co138       O141   1.849       .  S
Co139      O1775   2.101       .  S
Co139      O1792   2.014       .  S
Co139      O1797   2.026       .  S
Co140      O1776   2.009       .  S
Co140      O1791   2.017       .  S
Co140       O141   1.923       .  S
O141      Co1793   1.890       .  S
O141      Co1795   2.026       .  S
C142        C209   1.473       .  S
C143        C239   1.497       .  S
C144        C249   1.516       .  S
C145        C199   1.493       .  S
O146        C154   1.305       .  A
O146       Co166   2.071   1_455  S
O147        C155   1.267       .  A
O147      Co1823   1.986       .  S
O148        C156   1.286       .  A
O148       Co168   1.896       .  S
O149        C157   1.275       .  A
O149       Co169   1.958       .  S
O150        C156   1.298       .  A
O150       Co167   2.075   1_455  S
O151        C157   1.310       .  A
O151      Co1822   2.100       .  S
O152        C155   1.267       .  A
O152       Co169   1.963       .  S
O153        C154   1.287       .  A
O153       Co168   2.024       .  S
C154        C386   1.505       .  S
C155        C296   1.453       .  S
C156        C379   1.487       .  S
C157        C306   1.489       .  S
O158        C171   1.283       .  A
O158      Co1822   2.061       .  S
O159        C172   1.272       .  A
O159       Co167   1.992   1_455  S
O160        C173   1.291       .  A
O160       Co168   2.051       .  S
O161        C174   1.273       .  A
O161       Co169   1.987       .  S
O162        C174   1.289       .  A
O162      Co1823   2.015       .  S
O163        C173   1.275       .  A
O163       Co166   2.017   1_455  S
O164        C171   1.261       .  A
O164       Co169   1.941       .  S
O165        C172   1.286       .  A
O165       Co168   2.055       .  S
Co166      O1807   2.100       .  S
Co166      O1814   2.061       .  S
Co166       O170   2.020       .  S
Co167      O1803   1.986       .  S
Co167      O1818   2.015       .  S
Co167       O170   2.071       .  S
Co168       O170   1.877   1_455  S
Co169      O1826   1.921       .  S
O170      Co1825   1.921       .  S
C171        C219   1.477       .  S
C172        C186   1.486       .  S
C173        C226   1.491       .  S
C174        C179   1.487       .  S
C175        C176   1.418       .  A
C175        C180   1.403       .  A
C175        H182   1.083       .  S
C176        C177   1.397       .  A
C177        C178   1.393       .  A
C177        F184   1.357       .  S
C178        C179   1.416       .  A
C178        H183   1.082       .  S
C179        C180   1.401       .  A
C180        F181   1.357       .  S
C185        C186   1.400       .  A
C185        C190   1.399       .  A
C185        H192   1.084       .  S
C186        C187   1.408       .  A
C187        C188   1.414       .  A
C187        F194   1.354       .  S
C188        C189   1.408       .  A
C188        H193   1.083       .  S
C189        C190   1.415       .  A
C190        F191   1.359       .  S
C195        C196   1.403       .  A
C195        C200   1.405       .  A
C195        H202   1.084       .  S
C196        C197   1.403       .  A
C197        C198   1.411       .  A
C197        F204   1.346       .  S
C198        C199   1.405       .  A
C198        H203   1.083       .  S
C199        C200   1.411       .  A
C200        F201   1.357       .  S
C205        C206   1.418       .  A
C205        C210   1.390       .  A
C205        H212   1.082       .  S
C206        C207   1.394       .  A
C207        C208   1.395       .  A
C207        F214   1.358       .  S
C208        C209   1.418       .  A
C208        H213   1.078       .  S
C209        C210   1.391       .  A
C210        F211   1.357       .  S
C215        C216   1.398       .  A
C215        C220   1.395       .  A
C215        H222   1.078       .  S
C216        C217   1.400       .  A
C217        C218   1.405       .  A
C217        F224   1.346       .  S
C218        C219   1.405       .  A
C218        H223   1.083       .  S
C219        C220   1.407       .  A
C220        F221   1.358       .  S
C225        C226   1.411       .  A
C225        C230   1.407       .  A
C225        H232   1.083       .  S
C226        C227   1.406       .  A
C227        C228   1.394       .  A
C227        F234   1.358       .  S
C228        C229   1.409       .  A
C228        H233   1.083       .  S
C229        C230   1.409       .  A
C230        F231   1.357       .  S
C235        C236   1.418       .  A
C235        C240   1.404       .  A
C235        H242   1.083       .  S
C236        C237   1.396       .  A
C237        C238   1.401       .  A
C237        F244   1.357       .  S
C238        C239   1.421       .  A
C238        H243   1.082       .  S
C239        C240   1.401       .  A
C240        F241   1.357       .  S
C245        C246   1.417       .  A
C245        C250   1.418       .  A
C245        H252   1.079   1_545  S
C246        C247   1.399       .  A
C247        C248   1.403       .  A
C247        F254   1.358       .  S
C248        C249   1.422       .  A
C248        H253   1.084       .  S
C249        C250   1.405       .  A
C250        F251   1.356       .  S
C255        C256   1.406       .  A
C255        C260   1.408       .  A
C255        H262   1.083       .  S
C256        C257   1.409       .  A
C257        C258   1.376       .  A
C257        F264   1.356       .  S
C258        C259   1.397       .  A
C258        H263   1.083       .  S
C259        C260   1.412       .  A
C260        F261   1.357   1_554  S
C265        C266   1.396       .  A
C265        C270   1.390       .  A
C265        H272   1.084       .  S
C266        C267   1.414       .  A
C267        C268   1.406       .  A
C267        F274   1.357       .  S
C268        C269   1.403       .  A
C268        H273   1.083       .  S
C269        C270   1.414       .  A
C270        F271   1.358       .  S
C275        C276   1.401       .  A
C275        C280   1.399       .  A
C275        H282   1.084       .  S
C276        C277   1.408       .  A
C277        C278   1.408       .  A
C277        F284   1.353       .  S
C278        C279   1.405       .  A
C278        H283   1.083       .  S
C279        C280   1.412       .  A
C280        F281   1.359       .  S
C285        C286   1.408       .  A
C285        C290   1.395       .  A
C285        H292   1.083       .  S
C286        C287   1.391       .  A
C287        C288   1.384       .  A
C287        F294   1.358       .  S
C288        C289   1.408       .  A
C288        H293   1.084       .  S
C289        C290   1.397       .  A
C290        F291   1.357       .  S
C295        C296   1.408       .  A
C295        C300   1.391       .  A
C295        H302   1.084       .  S
C296        C297   1.398       .  A
C297        C298   1.397       .  A
C297        F304   1.357       .  S
C298        C299   1.403       .  A
C298        H303   1.083       .  S
C299        C300   1.396       .  A
C300        F301   1.357       .  S
C305        C306   1.404       .  A
C305        C310   1.395       .  A
C305        H312   1.083       .  S
C306        C307   1.410       .  A
C307        C308   1.403       .  A
C307        F314   1.356       .  S
C308        C309   1.407       .  A
C308        H313   1.083       .  S
C309        C310   1.409       .  A
C310        F311   1.352       .  S
C315        C316   1.406       .  A
C315        C320   1.393       .  A
C315        H322   1.078       .  S
C316        C317   1.401       .  A
C317        C318   1.402       .  A
C317        F324   1.358       .  S
C318        C319   1.414       .  A
C318        H323   1.083       .  S
C319        C320   1.400       .  A
C320        F321   1.357       .  S
C325        C326   1.396       .  A
C325        C330   1.389       .  A
C325        H332   1.084       .  S
C326        C327   1.413       .  A
C327        C328   1.400       .  A
C327        F334   1.357       .  S
C328        C329   1.398       .  A
C328        H333   1.083       .  S
C329        C330   1.404       .  A
C330        F331   1.350       .  S
C335        C336   1.408       .  A
C335        C340   1.377       .  A
C335        H342   1.081       .  S
C336        C337   1.401       .  A
C337        C338   1.402       .  A
C337        F344   1.357       .  S
C338        C339   1.412       .  A
C338        H343   1.081       .  S
C339        C340   1.392       .  A
C340        F341   1.359       .  S
C345        C346   1.418       .  A
C345        C350   1.404       .  A
C345        H352   1.083       .  S
C346        C347   1.397       .  A
C347        C348   1.395       .  A
C347        F354   1.357       .  S
C348        C349   1.414       .  A
C348        H353   1.083       .  S
C349        C350   1.400       .  A
C350        F351   1.357       .  S
C355        C356   1.414       .  A
C355        C360   1.409       .  A
C355        H362   1.083       .  S
C356        C357   1.396       .  A
C357        C358   1.393       .  A
C357        F364   1.358       .  S
C358        C359   1.415       .  A
C358        H363   1.083       .  S
C359        C360   1.406       .  A
C360        F361   1.357       .  S
C365        C366   1.401       .  A
C365        C370   1.387       .  A
C365        H372   1.085       .  S
C366        C367   1.407       .  A
C367        C368   1.411       .  A
C367        F374   1.356       .  S
C368        C369   1.408       .  A
C368        H373   1.082       .  S
C369        C370   1.403       .  A
C370        F371   1.358       .  S
C375        C376   1.412       .  A
C375        C380   1.393       .  A
C375        H382   1.075       .  S
C376        C377   1.401       .  A
C377        C378   1.404       .  A
C377        F384   1.357       .  S
C378        C379   1.418       .  A
C378        H383   1.083       .  S
C379        C380   1.399       .  A
C380        F381   1.357       .  S
C385        C386   1.414       .  A
C385        C390   1.408       .  A
C385        H392   1.077       .  S
C386        C387   1.407       .  A
C387        C388   1.403       .  A
C387        F394   1.357       .  S
C388        C389   1.408       .  A
C388        H393   1.077       .  S
C389        C390   1.403       .  A
C390        F391   1.357       .  S
C395        C396   1.391       .  A
C395        C400   1.381       .  A
C395        H402   1.084       .  S
C396        C397   1.414       .  A
C397        C398   1.406       .  A
C397        F404   1.355       .  S
C398        C399   1.402       .  A
C398        H403   1.083       .  S
C399        C400   1.416       .  A
C400        F401   1.356       .  S
C405        C406   1.413       .  A
C405        C410   1.385       .  A
C405        H412   1.083       .  S
C406        C407   1.401       .  A
C407        C408   1.403       .  A
C407        F414   1.357       .  S
C408        C409   1.415       .  A
C408        H413   1.082       .  S
C409        C410   1.397       .  A
C410        F411   1.358       .  S
O415        C423   1.269       .  A
O415       Co435   1.949       .  S
O416        C424   1.280       .  A
O416       Co436   2.001       .  S
O417        C425   1.273       .  A
O417       Co437   2.004       .  S
O418        C426   1.264       .  A
O418       Co438   1.985       .  S
O419        C425   1.284       .  A
O420        C426   1.272       .  A
O421        C424   1.270       .  A
O421       Co438   1.986       .  S
O422        C423   1.272       .  A
O422       Co437   2.013       .  S
C423        C823   1.468       .  S
C424        C790   1.479       .  S
C425        C803   1.497       .  S
C426        C813   1.484       .  S
O427        C440   1.279       .  A
O428        C441   1.272       .  A
O429        C442   1.287       .  A
O429       Co437   2.015       .  S
O430        C443   1.280       .  A
O430       Co438   1.990       .  S
O431        C443   1.271       .  A
O431       Co436   1.982       .  S
O432        C442   1.280       .  A
O432       Co435   1.999       .  S
O433        C440   1.291       .  A
O433       Co438   2.009       .  S
O434        C441   1.283       .  A
O434       Co437   2.015       .  S
Co435       O439   1.931       .  S
Co437       O439   2.097       .  S
C440        C760   1.487       .  S
C441        C773   1.496       .  S
C442        C780   1.473       .  S
C443        C750   1.466       .  S
O444        C452   1.303       .  A
O444       Co464   2.077       .  S
O445        C453   1.298       .  A
O445       Co465   2.079       .  S
O446        C454   1.273       .  A
O447        C455   1.284       .  A
O448        C454   1.272       .  A
O448       Co465   1.998       .  S
O449        C455   1.301       .  A
O449       Co464   2.067       .  S
O450        C453   1.280       .  A
O450       Co467   1.882       .  S
O451        C452   1.275       .  A
O451       Co466   1.956       .  S
C452        C740   1.470       .  S
C453        C713   1.452       .  S
C454        C730   1.468       .  S
C455        C723   1.492       .  S
O456        C469   1.269       .  A
O456       Co464   1.989       .  S
O457        C470   1.280       .  A
O457       Co465   2.003       .  S
O458        C471   1.266       .  A
O458       Co466   1.973       .  S
O459        C472   1.285       .  A
O459       Co467   2.061       .  S
O460        C472   1.270       .  A
O460       Co465   1.987       .  S
O461        C471   1.277       .  A
O461       Co464   2.021       .  S
O462        C469   1.287       .  A
O463        C470   1.267       .  A
Co464       O468   2.006       .  S
Co466       O468   1.935       .  S
C469        C673   1.473       .  S
C470        C703   1.451       .  S
C471        C680   1.479       .  S
C472        C690   1.481       .  S
O473        C481   1.299       .  A
O473       Co493   2.032       .  S
O474        C482   1.250       .  A
O474       Co494   1.979       .  S
O475        C483   1.272       .  A
O475      Co1323   2.015       .  S
O476        C484   1.275       .  A
O476       Co496   1.987   1_545  S
O477        C483   1.269       .  A
O477       Co494   1.987       .  S
O478        C484   1.298       .  A
O478       Co493   2.034       .  S
O479        C482   1.253       .  A
O479      Co1324   2.056       .  S
O480        C481   1.278       .  A
O480       Co495   2.006       .  S
C481        C660   1.499       .  S
C482        C630   1.474       .  S
C483        C643   1.492       .  S
C484        C650   1.488       .  S
O485        C498   1.276       .  A
O485       Co493   1.999       .  S
O486        C499   1.261       .  A
O486       Co494   1.969       .  S
O487        C500   1.270       .  A
O487       Co495   2.007       .  S
O488        C501   1.286       .  A
O488      Co1324   1.913       .  S
O489        C501   1.301       .  A
O489       Co494   2.092       .  S
O490        C500   1.264       .  A
O490       Co493   1.987       .  S
O491        C498   1.283       .  A
O491       Co496   1.991   1_545  S
O492        C499   1.274       .  A
O492      Co1323   2.007       .  S
Co493       O497   2.054       .  S
Co494      O1325   2.086       .  S
Co495      O1303   2.015   1_545  S
Co495      O1320   2.006   1_545  S
Co495       O497   2.062       .  S
Co496      O1307   2.054       .  S
Co496      O1316   1.913       .  S
Co496       O497   1.978   1_565  S
O497      Co1322   2.086   1_545  S
C498        C683   1.481       .  S
C499        C770   1.470       .  S
C500        C783   1.475       .  S
C501        C670   1.473       .  S
O502        C510   1.272       .  A
O502       Co522   1.957       .  S
O503        C511   1.303       .  A
O503      Co1351   2.065       .  S
O504        C512   1.271       .  A
O504       Co524   1.989       .  S
O505        C513   1.296       .  A
O505       Co525   2.031       .  S
O506        C512   1.284       .  A
O506       Co523   2.051       .  S
O507        C513   1.285       .  A
O507      Co1350   2.004       .  S
O508        C511   1.291       .  A
O508       Co525   1.994       .  S
O509        C510   1.292       .  A
O509       Co524   2.022       .  S
C510        C620   1.477       .  S
C511        C590   1.490       .  S
C512        C610   1.480       .  S
C513        C603   1.498       .  S
O514        C527   1.276       .  A
O514      Co1350   1.965       .  S
O515        C528   1.289       .  A
O515       Co523   1.882       .  S
O516        C529   1.265       .  A
O516       Co524   1.980       .  S
O517        C530   1.275       .  A
O517       Co525   1.984       .  S
O518        C530   1.288       .  A
O518      Co1351   2.046       .  S
O519        C529   1.275       .  A
O519       Co522   1.998       .  S
O520        C527   1.277       .  A
O520       Co525   1.995       .  S
O521        C528   1.300       .  A
O521       Co524   2.070       .  S
Co522      O1335   2.004   1_545  S
Co522      O1342   1.965   1_545  S
Co522       O526   1.886       .  S
Co523      O1331   2.065   1_545  S
Co523      O1346   2.046   1_545  S
Co523       O526   1.853       .  S
Co524       O526   2.016       .  S
Co525      O1354   1.912       .  S
O526      Co1353   1.912   1_545  S
C527        C753   1.458       .  S
C528        C700   1.442       .  S
C529        C763   1.487       .  S
C530        C693   1.486       .  S
O531        C539   1.275       .  A
O531       Co551   1.966       .  S
O532        C540   1.278       .  A
O532       Co552   1.980       .  S
O533        C541   1.285       .  A
O533      Co2209   2.041       .  S
O534        C542   1.280       .  A
O534      Co2210   2.014   1_455  S
O535        C541   1.270       .  A
O535       Co552   1.947       .  S
O536        C542   1.283       .  A
O536       Co551   1.984       .  S
O537        C540   1.279       .  A
O537       Co554   2.015       .  S
O538        C539   1.274       .  A
O538       Co553   1.988   1_455  S
C539        C820   1.471       .  S
C540        C733   1.481       .  S
C541        C743   1.467       .  S
C542        C810   1.475       .  S
O543        C556   1.275       .  A
O543       Co551   1.967       .  S
O544        C557   1.274       .  A
O544       Co552   1.972       .  S
O545        C558   1.303       .  A
O545       Co553   2.070   1_455  S
O546        C559   1.294       .  A
O546       Co554   2.033       .  S
O547        C559   1.278       .  A
O547       Co552   1.986       .  S
O548        C558   1.275       .  A
O548       Co551   1.981       .  S
O549        C556   1.294       .  A
O549      Co2210   2.020   1_455  S
O550        C557   1.295       .  A
O550      Co2209   2.036       .  S
Co551      O2211   1.883   1_455  S
Co552       O555   1.882       .  S
Co553      O2189   2.041       .  S
Co553      O2206   2.036       .  S
Co553      O2211   2.014       .  S
Co554      O2190   2.014       .  S
Co554      O2205   2.020       .  S
Co554       O555   1.959       .  S
O555      Co2207   1.883       .  S
O555      Co2209   2.014       .  S
C556        C623   1.476       .  S
C557        C653   1.493       .  S
C558        C663   1.517       .  S
C559        C613   1.483       .  S
O560        C568   1.304       .  A
O560       Co580   2.068   1_455  S
O561        C569   1.268       .  A
O561      Co2237   1.987       .  S
O562        C570   1.286       .  A
O562       Co582   1.900       .  S
O563        C571   1.276       .  A
O563       Co583   1.959       .  S
O564        C570   1.297       .  A
O564       Co581   2.071   1_455  S
O565        C571   1.310       .  A
O565      Co2236   2.103       .  S
O566        C569   1.267       .  A
O566       Co583   1.963       .  S
O567        C568   1.288       .  A
O567       Co582   2.026       .  S
C568        C800   1.506       .  S
C569        C710   1.452       .  S
C570        C793   1.486       .  S
C571        C720   1.491       .  S
O572        C585   1.283       .  A
O572      Co2236   2.060       .  S
O573        C586   1.272       .  A
O573       Co581   1.992   1_455  S
O574        C587   1.291       .  A
O574       Co582   2.050       .  S
O575        C588   1.273       .  A
O575       Co583   1.990       .  S
O576        C588   1.289       .  A
O576      Co2237   2.016       .  S
O577        C587   1.275       .  A
O577       Co580   2.019   1_455  S
O578        C585   1.261       .  A
O578       Co583   1.943       .  S
O579        C586   1.287       .  A
O579       Co582   2.057       .  S
Co580      O2221   2.103       .  S
Co580      O2228   2.060       .  S
Co580       O584   2.019       .  S
Co581      O2217   1.987       .  S
Co581      O2232   2.016       .  S
Co581       O584   2.070       .  S
Co582       O584   1.880   1_455  S
Co583      O2240   1.925       .  S
O584      Co2239   1.925       .  S
C585        C633   1.477       .  S
C586        C600   1.487       .  S
C587        C640   1.491       .  S
C588        C593   1.489       .  S
C589        C590   1.418       .  A
C589        C594   1.403       .  A
C589        H596   1.083       .  S
C590        C591   1.398       .  A
C591        C592   1.396       .  A
C591        F598   1.357       .  S
C592        C593   1.416       .  A
C592        H597   1.082       .  S
C593        C594   1.401       .  A
C594        F595   1.357       .  S
C599        C600   1.400       .  A
C599        C604   1.399       .  A
C599        H606   1.084       .  S
C600        C601   1.408       .  A
C601        C602   1.414       .  A
C601        F608   1.355       .  S
C602        C603   1.409       .  A
C602        H607   1.083       .  S
C603        C604   1.415       .  A
C604        F605   1.359       .  S
C609        C610   1.398       .  A
C609        C614   1.396       .  A
C609        H616   1.084       .  S
C610        C611   1.403       .  A
C611        C612   1.410       .  A
C611        F618   1.346       .  S
C612        C613   1.404       .  A
C612        H617   1.083       .  S
C613        C614   1.412       .  A
C614        F615   1.358       .  S
C619        C620   1.418       .  A
C619        C624   1.392       .  A
C619        H626   1.082       .  S
C620        C621   1.393       .  A
C621        C622   1.394       .  A
C621        F628   1.358       .  S
C622        C623   1.417       .  A
C622        H627   1.077       .  S
C623        C624   1.392       .  A
C624        F625   1.357       .  S
C629        C630   1.400       .  A
C629        C634   1.395       .  A
C629        H636   1.078       .  S
C630        C631   1.400       .  A
C631        C632   1.406       .  A
C631        F638   1.346       .  S
C632        C633   1.405       .  A
C632        H637   1.083       .  S
C633        C634   1.406       .  A
C634        F635   1.358       .  S
C639        C640   1.411       .  A
C639        C644   1.407       .  A
C639        H646   1.083       .  S
C640        C641   1.406       .  A
C641        C642   1.394       .  A
C641        F648   1.357       .  S
C642        C643   1.409       .  A
C642        H647   1.083       .  S
C643        C644   1.409       .  A
C644        F645   1.357       .  S
C649        C650   1.419       .  A
C649        C654   1.404       .  A
C649        H656   1.083       .  S
C650        C651   1.396       .  A
C651        C652   1.399       .  A
C651        F658   1.357       .  S
C652        C653   1.419       .  A
C652        H657   1.083       .  S
C653        C654   1.400       .  A
C654        F655   1.357       .  S
C659        C660   1.418       .  A
C659        C664   1.416       .  A
C659        H666   1.078   1_545  S
C660        C661   1.397       .  A
C661        C662   1.403       .  A
C661        F668   1.358       .  S
C662        C663   1.423       .  A
C662        H667   1.083       .  S
C663        C664   1.404       .  A
C664        F665   1.356       .  S
C669        C670   1.405       .  A
C669        C674   1.406       .  A
C669        H676   1.083       .  S
C670        C671   1.410       .  A
C671        C672   1.376       .  A
C671        F678   1.357       .  S
C672        C673   1.396       .  A
C672        H677   1.083       .  S
C673        C674   1.413       .  A
C674        F675   1.357       .  S
C679        C680   1.397       .  A
C679        C684   1.389       .  A
C679        H686   1.084       .  S
C680        C681   1.413       .  A
C681        C682   1.406       .  A
C681        F688   1.357       .  S
C682        C683   1.403       .  A
C682        H687   1.083       .  S
C683        C684   1.413       .  A
C684        F685   1.358       .  S
C689        C690   1.401       .  A
C689        C694   1.399       .  A
C689        H696   1.084       .  S
C690        C691   1.408       .  A
C691        C692   1.408       .  A
C691        F698   1.353       .  S
C692        C693   1.405       .  A
C692        H697   1.083       .  S
C693        C694   1.411       .  A
C694        F695   1.358       .  S
C699        C700   1.408       .  A
C699        C704   1.395       .  A
C699        H706   1.083       .  S
C700        C701   1.391       .  A
C701        C702   1.385       .  A
C701        F708   1.358       .  S
C702        C703   1.408       .  A
C702        H707   1.084       .  S
C703        C704   1.397       .  A
C704        F705   1.357       .  S
C709        C710   1.406       .  A
C709        C714   1.390       .  A
C709        H716   1.084       .  S
C710        C711   1.400       .  A
C711        C712   1.398       .  A
C711        F718   1.357       .  S
C712        C713   1.404       .  A
C712        H717   1.083       .  S
C713        C714   1.396       .  A
C714        F715   1.356       .  S
C719        C720   1.405       .  A
C719        C724   1.395       .  A
C719        H726   1.083       .  S
C720        C721   1.411       .  A
C721        C722   1.403       .  A
C721        F728   1.356       .  S
C722        C723   1.407       .  A
C722        H727   1.083       .  S
C723        C724   1.410       .  A
C724        F725   1.352       .  S
C729        C730   1.403       .  A
C729        C734   1.390       .  A
C729        H736   1.078       .  S
C730        C731   1.402       .  A
C731        C732   1.403       .  A
C731        F738   1.358       .  S
C732        C733   1.413       .  A
C732        H737   1.083       .  S
C733        C734   1.401       .  A
C734        F735   1.357       .  S
C739        C740   1.398       .  A
C739        C744   1.392       .  A
C739        H746   1.083       .  S
C740        C741   1.411       .  A
C741        C742   1.402       .  A
C741        F748   1.358       .  S
C742        C743   1.402       .  A
C742        H747   1.083       .  S
C743        C744   1.399       .  A
C744        F745   1.347       .  S
C749        C750   1.408       .  A
C749        C754   1.378       .  A
C749        H756   1.081       .  S
C750        C751   1.400       .  A
C751        C752   1.399       .  A
C751        F758   1.357       .  S
C752        C753   1.411       .  A
C752        H757   1.082       .  S
C753        C754   1.392       .  A
C754        F755   1.358       .  S
C759        C760   1.417       .  A
C759        C764   1.403       .  A
C759        H766   1.083       .  S
C760        C761   1.398       .  A
C761        C762   1.397       .  A
C761        F768   1.357       .  S
C762        C763   1.416       .  A
C762        H767   1.083       .  S
C763        C764   1.399       .  A
C764        F765   1.357       .  S
C769        C770   1.413       .  A
C769        C774   1.408       .  A
C769        H776   1.082       .  S
C770        C771   1.395       .  A
C771        C772   1.393       .  A
C771        F778   1.358       .  S
C772        C773   1.416       .  A
C772        H777   1.083       .  S
C773        C774   1.405       .  A
C774        F775   1.357       .  S
C779        C780   1.402       .  A
C779        C784   1.387       .  A
C779        H786   1.085       .  S
C780        C781   1.408       .  A
C781        C782   1.411       .  A
C781        F788   1.356       .  S
C782        C783   1.408       .  A
C782        H787   1.082       .  S
C783        C784   1.402       .  A
C784        F785   1.359       .  S
C789        C790   1.408       .  A
C789        C794   1.395       .  A
C789        H796   1.073       .  S
C790        C791   1.400       .  A
C791        C792   1.402       .  A
C791        F798   1.357       .  S
C792        C793   1.416       .  A
C792        H797   1.083       .  S
C793        C794   1.401       .  A
C794        F795   1.357       .  S
C799        C800   1.414       .  A
C799        C804   1.409       .  A
C799        H806   1.075       .  S
C800        C801   1.407       .  A
C801        C802   1.403       .  A
C801        F808   1.357       .  S
C802        C803   1.411       .  A
C802        H807   1.079       .  S
C803        C804   1.403       .  A
C804        F805   1.357       .  S
C809        C810   1.392       .  A
C809        C814   1.384       .  A
C809        H816   1.084       .  S
C810        C811   1.415       .  A
C811        C812   1.406       .  A
C811        F818   1.354       .  S
C812        C813   1.402       .  A
C812        H817   1.083       .  S
C813        C814   1.418       .  A
C814        F815   1.358       .  S
C819        C820   1.410       .  A
C819        C824   1.382       .  A
C819        H826   1.084       .  S
C820        C821   1.400       .  A
C821        C822   1.398       .  A
C821        F828   1.358       .  S
C822        C823   1.413       .  A
C822        H827   1.081       .  S
C823        C824   1.397       .  A
C824        F825   1.358       .  S
O829        C837   1.271       .  A
O829       Co849   1.958       .  S
O830        C838   1.282       .  A
O830       Co850   2.010       .  S
O831        C839   1.274       .  A
O831       Co851   2.008       .  S
O832        C840   1.265       .  A
O832       Co852   1.986       .  S
O833        C839   1.281       .  A
O833      Co1264   2.010   1_554  S
O834        C840   1.271       .  A
O834      Co1263   1.987       .  S
O835        C838   1.269       .  A
O835       Co852   1.979       .  S
O836        C837   1.273       .  A
O836       Co851   2.017       .  S
C837       C1237   1.477       .  S
C838       C1204   1.486       .  S
C839       C1217   1.494       .  S
C840       C1227   1.480       .  S
O841        C854   1.279       .  A
O841      Co1263   2.005       .  S
O842        C855   1.272       .  A
O842      Co1264   1.999   1_554  S
O843        C856   1.287       .  A
O843       Co851   2.013       .  S
O844        C857   1.282       .  A
O844       Co852   1.995       .  S
O845        C857   1.272       .  A
O845       Co850   1.981       .  S
O846        C856   1.280       .  A
O846       Co849   1.997       .  S
O847        C854   1.292       .  A
O847       Co852   2.010       .  S
O848        C855   1.282       .  A
O848       Co851   2.016       .  S
Co849      O1248   1.992   1_554  S
Co849      O1255   2.006   1_554  S
Co849       O853   1.935       .  S
Co850      O1247   2.017       .  S
Co850      O1256   1.998       .  S
Co850      O1267   2.035       .  S
Co851       O853   2.101       .  S
Co852      O1267   2.093       .  S
O853      Co1264   2.037   1_554  S
O853      Co1266   2.097   1_554  S
C854       C1174   1.487       .  S
C855       C1187   1.497       .  S
C856       C1194   1.472       .  S
C857       C1164   1.470       .  S
O858        C866   1.302       .  A
O858       Co878   2.068       .  S
O859        C867   1.298       .  A
O859       Co879   2.078       .  S
O860        C868   1.274       .  A
O860      Co1294   1.974       .  S
O861        C869   1.283       .  A
O861      Co1295   2.006   1_554  S
O862        C868   1.271       .  A
O862       Co879   1.997       .  S
O863        C869   1.302       .  A
O863       Co878   2.071       .  S
O864        C867   1.281       .  A
O864       Co881   1.882       .  S
O865        C866   1.276       .  A
O865       Co880   1.958       .  S
C866       C1154   1.467       .  S
C867       C1127   1.450       .  S
C868       C1144   1.471       .  S
C869       C1137   1.492       .  S
O870        C883   1.269       .  A
O870       Co878   1.988       .  S
O871        C884   1.280       .  A
O871       Co879   2.001       .  S
O872        C885   1.265       .  A
O872       Co880   1.968       .  S
O873        C886   1.286       .  A
O873       Co881   2.064       .  S
O874        C886   1.270       .  A
O874       Co879   1.985       .  S
O875        C885   1.279       .  A
O875       Co878   2.027       .  S
O876        C883   1.288       .  A
O876      Co1295   2.052   1_554  S
O877        C884   1.267       .  A
O877      Co1294   1.955       .  S
Co878       O882   2.002   1_554  S
Co879      O1296   2.058       .  S
Co880      O1274   1.971   1_554  S
Co880      O1291   1.959   1_554  S
Co880       O882   1.936   1_554  S
Co881      O1275   2.010       .  S
Co881      O1290   2.046       .  S
Co881      O1296   1.873       .  S
O882      Co1293   2.054       .  S
O882      Co1295   1.873       .  S
C883       C1087   1.476       .  S
C884       C1117   1.449       .  S
C885       C1094   1.479       .  S
C886       C1104   1.481       .  S
O887        C895   1.300       .  A
O887       Co907   2.033       .  S
O888        C896   1.249       .  A
O888       Co908   1.976       .  S
O889        C897   1.271       .  A
O890        C898   1.275       .  A
O890       Co910   1.985       .  S
O891        C897   1.268       .  A
O891       Co908   1.987       .  S
O892        C898   1.298       .  A
O892       Co907   2.038       .  S
O893        C896   1.254       .  A
O894        C895   1.280       .  A
O894       Co909   2.010       .  S
C895       C1074   1.500       .  S
C896       C1044   1.472       .  S
C897       C1057   1.491       .  S
C898       C1064   1.491       .  S
O899        C912   1.276       .  A
O899       Co907   2.000       .  S
O900        C913   1.261       .  A
O900       Co908   1.968       .  S
O901        C914   1.270       .  A
O901       Co909   2.008       .  S
O902        C915   1.286       .  A
O903        C915   1.301       .  A
O903       Co908   2.095       .  S
O904        C914   1.263       .  A
O904       Co907   1.986       .  S
O905        C912   1.284       .  A
O905       Co910   1.991       .  S
O906        C913   1.274       .  A
Co907       O911   2.056       .  S
Co909       O911   2.063       .  S
Co910       O911   1.977       .  S
C912       C1097   1.481       .  S
C913       C1184   1.470       .  S
C914       C1197   1.476       .  S
C915       C1084   1.476       .  S
O916        C924   1.272       .  A
O916       Co936   1.956       .  S
O917        C925   1.301       .  A
O918        C926   1.272       .  A
O918       Co938   1.996       .  S
O919        C927   1.296       .  A
O919       Co939   2.032       .  S
O920        C926   1.285       .  A
O920       Co937   2.065       .  S
O921        C927   1.284       .  A
O922        C925   1.291       .  A
O922       Co939   1.989       .  S
O923        C924   1.291       .  A
O923       Co938   2.020       .  S
C924       C1034   1.476       .  S
C925       C1004   1.487       .  S
C926       C1024   1.493       .  S
C927       C1017   1.499       .  S
O928        C941   1.276       .  A
O929        C942   1.288       .  A
O929       Co937   1.878       .  S
O930        C943   1.266       .  A
O930       Co938   1.983       .  S
O931        C944   1.275       .  A
O931       Co939   1.982       .  S
O932        C944   1.288       .  A
O933        C943   1.275       .  A
O933       Co936   1.995       .  S
O934        C941   1.277       .  A
O934       Co939   2.000       .  S
O935        C942   1.300       .  A
O935       Co938   2.069       .  S
Co936       O940   1.890       .  S
Co937       O940   1.854       .  S
Co938       O940   2.017       .  S
C941       C1167   1.461       .  S
C942       C1114   1.440       .  S
C943       C1177   1.486       .  S
C944       C1107   1.487       .  S
O945        C953   1.273       .  A
O945       Co965   1.983       .  S
O946        C954   1.285       .  A
O946       Co966   2.023       .  S
O947        C955   1.309       .  A
O947      Co2623   2.101       .  S
O948        C956   1.279       .  A
O948      Co2624   2.009   1_455  S
O949        C955   1.287       .  A
O949       Co966   1.884       .  S
O950        C956   1.282       .  A
O950       Co965   1.979       .  S
O951        C954   1.272       .  A
O951       Co968   1.979       .  S
O952        C953   1.267       .  A
O952       Co967   1.976   1_455  S
C953       C1234   1.481       .  S
C954       C1147   1.484       .  S
C955       C1157   1.465       .  S
C956       C1224   1.472       .  S
O957        C970   1.274       .  A
O957       Co965   1.958       .  S
O958        C971   1.278       .  A
O958       Co966   2.009       .  S
O959        C972   1.304       .  A
O959       Co967   2.075   1_455  S
O960        C973   1.289       .  A
O960       Co968   2.000       .  S
O961        C973   1.309       .  A
O961       Co966   2.098       .  S
O962        C972   1.274       .  A
O962       Co965   1.973       .  S
O963        C970   1.295       .  A
O963      Co2624   2.017   1_455  S
O964        C971   1.281       .  A
O964      Co2623   2.015       .  S
Co965      O2625   1.890   1_455  S
Co966       O969   1.849       .  S
Co967      O2603   2.101       .  S
Co967      O2620   2.015       .  S
Co967      O2625   2.026       .  S
Co968      O2604   2.009       .  S
Co968      O2619   2.017       .  S
Co968       O969   1.923       .  S
O969      Co2621   1.890       .  S
O969      Co2623   2.026       .  S
C970       C1037   1.473       .  S
C971       C1067   1.498       .  S
C972       C1077   1.516       .  S
C973       C1027   1.493       .  S
O974        C982   1.305       .  A
O974       Co994   2.072   1_455  S
O975        C983   1.267       .  A
O975      Co2651   1.986       .  S
O976        C984   1.286       .  A
O976       Co996   1.895       .  S
O977        C985   1.275       .  A
O977       Co997   1.958       .  S
O978        C984   1.298       .  A
O978       Co995   2.075   1_455  S
O979        C985   1.309       .  A
O979      Co2650   2.100       .  S
O980        C983   1.267       .  A
O980       Co997   1.963       .  S
O981        C982   1.287       .  A
O981       Co996   2.024       .  S
C982       C1214   1.505       .  S
C983       C1124   1.453       .  S
C984       C1207   1.487       .  S
C985       C1134   1.489       .  S
O986        C999   1.283       .  A
O986      Co2650   2.061       .  S
O987       C1000   1.272       .  A
O987       Co995   1.992   1_455  S
O988       C1001   1.291       .  A
O988       Co996   2.051       .  S
O989       C1002   1.273       .  A
O989       Co997   1.987       .  S
O990       C1002   1.289       .  A
O990      Co2651   2.016       .  S
O991       C1001   1.275       .  A
O991       Co994   2.017   1_455  S
O992        C999   1.261       .  A
O992       Co997   1.940       .  S
O993       C1000   1.286       .  A
O993       Co996   2.055       .  S
Co994      O2635   2.100       .  S
Co994      O2642   2.061       .  S
Co994       O998   2.020       .  S
Co995      O2631   1.986       .  S
Co995      O2646   2.016       .  S
Co995       O998   2.071       .  S
Co996       O998   1.877   1_455  S
Co997      O2654   1.921       .  S
O998      Co2653   1.921       .  S
C999       C1047   1.477       .  S
C1000      C1014   1.486       .  S
C1001      C1054   1.491       .  S
C1002      C1007   1.487       .  S
C1003      C1004   1.418       .  A
C1003      C1008   1.403       .  A
C1003      H1010   1.083       .  S
C1004      C1005   1.397       .  A
C1005      C1006   1.393       .  A
C1005      F1012   1.357       .  S
C1006      C1007   1.416       .  A
C1006      H1011   1.082       .  S
C1007      C1008   1.401       .  A
C1008      F1009   1.357       .  S
C1013      C1014   1.400       .  A
C1013      C1018   1.399       .  A
C1013      H1020   1.084       .  S
C1014      C1015   1.408       .  A
C1015      C1016   1.414       .  A
C1015      F1022   1.354       .  S
C1016      C1017   1.408       .  A
C1016      H1021   1.083       .  S
C1017      C1018   1.416       .  A
C1018      F1019   1.359       .  S
C1023      C1024   1.403       .  A
C1023      C1028   1.405       .  A
C1023      H1030   1.084       .  S
C1024      C1025   1.403       .  A
C1025      C1026   1.411       .  A
C1025      F1032   1.346       .  S
C1026      C1027   1.405       .  A
C1026      H1031   1.083       .  S
C1027      C1028   1.411       .  A
C1028      F1029   1.357       .  S
C1033      C1034   1.418       .  A
C1033      C1038   1.390       .  A
C1033      H1040   1.082       .  S
C1034      C1035   1.394       .  A
C1035      C1036   1.394       .  A
C1035      F1042   1.358       .  S
C1036      C1037   1.418       .  A
C1036      H1041   1.078       .  S
C1037      C1038   1.391       .  A
C1038      F1039   1.357       .  S
C1043      C1044   1.398       .  A
C1043      C1048   1.395       .  A
C1043      H1050   1.078       .  S
C1044      C1045   1.400       .  A
C1045      C1046   1.405       .  A
C1045      F1052   1.346       .  S
C1046      C1047   1.404       .  A
C1046      H1051   1.083       .  S
C1047      C1048   1.407       .  A
C1048      F1049   1.358       .  S
C1053      C1054   1.411       .  A
C1053      C1058   1.407       .  A
C1053      H1060   1.083       .  S
C1054      C1055   1.407       .  A
C1055      C1056   1.394       .  A
C1055      F1062   1.358       .  S
C1056      C1057   1.409       .  A
C1056      H1061   1.083       .  S
C1057      C1058   1.409       .  A
C1058      F1059   1.357       .  S
C1063      C1064   1.418       .  A
C1063      C1068   1.404       .  A
C1063      H1070   1.083       .  S
C1064      C1065   1.396       .  A
C1065      C1066   1.401       .  A
C1065      F1072   1.357       .  S
C1066      C1067   1.421       .  A
C1066      H1071   1.082       .  S
C1067      C1068   1.401       .  A
C1068      F1069   1.357       .  S
C1073      C1074   1.417       .  A
C1073      C1078   1.417       .  A
C1073      H1080   1.079       .  S
C1074      C1075   1.398       .  A
C1075      C1076   1.403       .  A
C1075      F1082   1.358       .  S
C1076      C1077   1.422       .  A
C1076      H1081   1.084       .  S
C1077      C1078   1.404       .  A
C1078      F1079   1.356       .  S
C1083      C1084   1.406       .  A
C1083      C1088   1.408       .  A
C1083      H1090   1.083       .  S
C1084      C1085   1.409       .  A
C1085      C1086   1.376       .  A
C1085      F1092   1.356       .  S
C1086      C1087   1.397       .  A
C1086      H1091   1.083       .  S
C1087      C1088   1.412       .  A
C1088      F1089   1.357   1_554  S
C1093      C1094   1.396       .  A
C1093      C1098   1.390       .  A
C1093      H1100   1.084       .  S
C1094      C1095   1.414       .  A
C1095      C1096   1.406       .  A
C1095      F1102   1.357       .  S
C1096      C1097   1.403       .  A
C1096      H1101   1.083       .  S
C1097      C1098   1.414       .  A
C1098      F1099   1.358       .  S
C1103      C1104   1.401       .  A
C1103      C1108   1.399       .  A
C1103      H1110   1.084       .  S
C1104      C1105   1.407       .  A
C1105      C1106   1.408       .  A
C1105      F1112   1.353       .  S
C1106      C1107   1.405       .  A
C1106      H1111   1.083       .  S
C1107      C1108   1.412       .  A
C1108      F1109   1.359       .  S
C1113      C1114   1.408       .  A
C1113      C1118   1.395       .  A
C1113      H1120   1.083       .  S
C1114      C1115   1.391       .  A
C1115      C1116   1.384       .  A
C1115      F1122   1.358       .  S
C1116      C1117   1.408       .  A
C1116      H1121   1.084       .  S
C1117      C1118   1.397       .  A
C1118      F1119   1.357       .  S
C1123      C1124   1.408       .  A
C1123      C1128   1.391       .  A
C1123      H1130   1.084       .  S
C1124      C1125   1.398       .  A
C1125      C1126   1.397       .  A
C1125      F1132   1.357       .  S
C1126      C1127   1.403       .  A
C1126      H1131   1.083       .  S
C1127      C1128   1.396       .  A
C1128      F1129   1.357       .  S
C1133      C1134   1.404       .  A
C1133      C1138   1.395       .  A
C1133      H1140   1.083       .  S
C1134      C1135   1.410       .  A
C1135      C1136   1.403       .  A
C1135      F1142   1.356       .  S
C1136      C1137   1.407       .  A
C1136      H1141   1.083       .  S
C1137      C1138   1.409       .  A
C1138      F1139   1.352       .  S
C1143      C1144   1.406       .  A
C1143      C1148   1.393       .  A
C1143      H1150   1.078       .  S
C1144      C1145   1.401       .  A
C1145      C1146   1.402       .  A
C1145      F1152   1.358       .  S
C1146      C1147   1.414       .  A
C1146      H1151   1.083       .  S
C1147      C1148   1.400       .  A
C1148      F1149   1.357       .  S
C1153      C1154   1.396       .  A
C1153      C1158   1.389       .  A
C1153      H1160   1.084       .  S
C1154      C1155   1.413       .  A
C1155      C1156   1.400       .  A
C1155      F1162   1.357       .  S
C1156      C1157   1.397       .  A
C1156      H1161   1.083       .  S
C1157      C1158   1.404       .  A
C1158      F1159   1.350       .  S
C1163      C1164   1.408       .  A
C1163      C1168   1.377       .  A
C1163      H1170   1.081       .  S
C1164      C1165   1.400       .  A
C1165      C1166   1.402       .  A
C1165      F1172   1.357       .  S
C1166      C1167   1.412       .  A
C1166      H1171   1.081       .  S
C1167      C1168   1.392       .  A
C1168      F1169   1.359       .  S
C1173      C1174   1.418       .  A
C1173      C1178   1.404       .  A
C1173      H1180   1.083       .  S
C1174      C1175   1.398       .  A
C1175      C1176   1.395       .  A
C1175      F1182   1.357       .  S
C1176      C1177   1.414       .  A
C1176      H1181   1.083       .  S
C1177      C1178   1.400       .  A
C1178      F1179   1.357       .  S
C1183      C1184   1.414       .  A
C1183      C1188   1.409       .  A
C1183      H1190   1.083       .  S
C1184      C1185   1.396       .  A
C1185      C1186   1.393       .  A
C1185      F1192   1.358       .  S
C1186      C1187   1.415       .  A
C1186      H1191   1.083       .  S
C1187      C1188   1.406       .  A
C1188      F1189   1.357       .  S
C1193      C1194   1.402       .  A
C1193      C1198   1.387       .  A
C1193      H1200   1.085       .  S
C1194      C1195   1.407       .  A
C1195      C1196   1.411       .  A
C1195      F1202   1.356       .  S
C1196      C1197   1.408       .  A
C1196      H1201   1.082       .  S
C1197      C1198   1.403       .  A
C1198      F1199   1.358       .  S
C1203      C1204   1.413       .  A
C1203      C1208   1.393       .  A
C1203      H1210   1.076       .  S
C1204      C1205   1.401       .  A
C1205      C1206   1.404       .  A
C1205      F1212   1.357       .  S
C1206      C1207   1.418       .  A
C1206      H1211   1.083       .  S
C1207      C1208   1.398       .  A
C1208      F1209   1.357       .  S
C1213      C1214   1.414       .  A
C1213      C1218   1.408       .  A
C1213      H1220   1.077       .  S
C1214      C1215   1.408       .  A
C1215      C1216   1.403       .  A
C1215      F1222   1.357       .  S
C1216      C1217   1.408       .  A
C1216      H1221   1.077       .  S
C1217      C1218   1.403       .  A
C1218      F1219   1.357       .  S
C1223      C1224   1.391       .  A
C1223      C1228   1.381       .  A
C1223      H1230   1.084       .  S
C1224      C1225   1.414       .  A
C1225      C1226   1.406       .  A
C1225      F1232   1.355       .  S
C1226      C1227   1.402       .  A
C1226      H1231   1.083       .  S
C1227      C1228   1.415       .  A
C1228      F1229   1.355       .  S
C1233      C1234   1.413       .  A
C1233      C1238   1.385       .  A
C1233      H1240   1.083       .  S
C1234      C1235   1.401       .  A
C1235      C1236   1.403       .  A
C1235      F1242   1.357       .  S
C1236      C1237   1.415       .  A
C1236      H1241   1.082       .  S
C1237      C1238   1.397       .  A
C1238      F1239   1.358       .  S
O1243      C1251   1.269       .  A
O1243     Co1263   1.949       .  S
O1244      C1252   1.280       .  A
O1244     Co1264   2.001       .  S
O1245      C1253   1.273       .  A
O1245     Co1265   2.004       .  S
O1246      C1254   1.264       .  A
O1246     Co1266   1.985       .  S
O1247      C1253   1.284       .  A
O1248      C1254   1.272       .  A
O1249      C1252   1.270       .  A
O1249     Co1266   1.986       .  S
O1250      C1251   1.272       .  A
O1250     Co1265   2.012       .  S
C1251      C1651   1.468       .  S
C1252      C1618   1.479       .  S
C1253      C1631   1.497       .  S
C1254      C1641   1.484       .  S
O1255      C1268   1.279       .  A
O1256      C1269   1.272       .  A
O1257      C1270   1.288       .  A
O1257     Co1265   2.015       .  S
O1258      C1271   1.280       .  A
O1258     Co1266   1.990       .  S
O1259      C1271   1.271       .  A
O1259     Co1264   1.982       .  S
O1260      C1270   1.280       .  A
O1260     Co1263   1.999       .  S
O1261      C1268   1.291       .  A
O1261     Co1266   2.009       .  S
O1262      C1269   1.283       .  A
O1262     Co1265   2.015       .  S
Co1263     O1267   1.931       .  S
Co1265     O1267   2.097       .  S
C1268      C1588   1.487       .  S
C1269      C1601   1.496       .  S
C1270      C1608   1.473       .  S
C1271      C1578   1.466       .  S
O1272      C1280   1.303       .  A
O1272     Co1292   2.076       .  S
O1273      C1281   1.298       .  A
O1273     Co1293   2.079       .  S
O1274      C1282   1.273       .  A
O1275      C1283   1.284       .  A
O1276      C1282   1.272       .  A
O1276     Co1293   1.998       .  S
O1277      C1283   1.301       .  A
O1277     Co1292   2.068       .  S
O1278      C1281   1.280       .  A
O1278     Co1295   1.882       .  S
O1279      C1280   1.275       .  A
O1279     Co1294   1.957       .  S
C1280      C1568   1.470       .  S
C1281      C1541   1.452       .  S
C1282      C1558   1.468       .  S
C1283      C1551   1.492       .  S
O1284      C1297   1.269       .  A
O1284     Co1292   1.989       .  S
O1285      C1298   1.280       .  A
O1285     Co1293   2.002       .  S
O1286      C1299   1.266       .  A
O1286     Co1294   1.973       .  S
O1287      C1300   1.285       .  A
O1287     Co1295   2.061       .  S
O1288      C1300   1.270       .  A
O1288     Co1293   1.987       .  S
O1289      C1299   1.277       .  A
O1289     Co1292   2.021       .  S
O1290      C1297   1.287       .  A
O1291      C1298   1.267       .  A
Co1292     O1296   2.006       .  S
Co1294     O1296   1.935       .  S
C1297      C1501   1.473       .  S
C1298      C1531   1.451       .  S
C1299      C1508   1.479       .  S
C1300      C1518   1.481       .  S
O1301      C1309   1.299       .  A
O1301     Co1321   2.032       .  S
O1302      C1310   1.250       .  A
O1302     Co1322   1.979       .  S
O1303      C1311   1.272       .  A
O1304      C1312   1.275       .  A
O1304     Co1324   1.986       .  S
O1305      C1311   1.269       .  A
O1305     Co1322   1.987       .  S
O1306      C1312   1.298       .  A
O1306     Co1321   2.034       .  S
O1307      C1310   1.253       .  A
O1308      C1309   1.278       .  A
O1308     Co1323   2.007       .  S
C1309      C1488   1.499       .  S
C1310      C1458   1.473       .  S
C1311      C1471   1.492       .  S
C1312      C1478   1.488       .  S
O1313      C1326   1.276       .  A
O1313     Co1321   1.999       .  S
O1314      C1327   1.261       .  A
O1314     Co1322   1.969       .  S
O1315      C1328   1.270       .  A
O1315     Co1323   2.008       .  S
O1316      C1329   1.286       .  A
O1317      C1329   1.301       .  A
O1317     Co1322   2.091       .  S
O1318      C1328   1.264       .  A
O1318     Co1321   1.987       .  S
O1319      C1326   1.283       .  A
O1319     Co1324   1.991       .  S
O1320      C1327   1.274       .  A
Co1321     O1325   2.054       .  S
Co1323     O1325   2.062       .  S
Co1324     O1325   1.978       .  S
C1326      C1511   1.481       .  S
C1327      C1598   1.470       .  S
C1328      C1611   1.476       .  S
C1329      C1498   1.474       .  S
O1330      C1338   1.272       .  A
O1330     Co1350   1.957       .  S
O1331      C1339   1.303       .  A
O1332      C1340   1.271       .  A
O1332     Co1352   1.989       .  S
O1333      C1341   1.296       .  A
O1333     Co1353   2.031       .  S
O1334      C1340   1.284       .  A
O1334     Co1351   2.051       .  S
O1335      C1341   1.285       .  A
O1336      C1339   1.291       .  A
O1336     Co1353   1.993       .  S
O1337      C1338   1.292       .  A
O1337     Co1352   2.022       .  S
C1338      C1448   1.476       .  S
C1339      C1418   1.490       .  S
C1340      C1438   1.480       .  S
C1341      C1431   1.498       .  S
O1342      C1355   1.276       .  A
O1343      C1356   1.289       .  A
O1343     Co1351   1.882       .  S
O1344      C1357   1.265       .  A
O1344     Co1352   1.980       .  S
O1345      C1358   1.275       .  A
O1345     Co1353   1.984       .  S
O1346      C1358   1.288       .  A
O1347      C1357   1.275       .  A
O1347     Co1350   1.998       .  S
O1348      C1355   1.277       .  A
O1348     Co1353   1.995       .  S
O1349      C1356   1.300       .  A
O1349     Co1352   2.070       .  S
Co1350     O1354   1.886       .  S
Co1351     O1354   1.853       .  S
Co1352     O1354   2.016       .  S
C1355      C1581   1.458       .  S
C1356      C1528   1.442       .  S
C1357      C1591   1.487       .  S
C1358      C1521   1.486       .  S
O1359      C1367   1.275       .  A
O1359     Co1379   1.966       .  S
O1360      C1368   1.278       .  A
O1360     Co1380   1.980       .  S
O1361      C1369   1.285       .  A
O1361     Co3037   2.041       .  S
O1362      C1370   1.280       .  A
O1362     Co3038   2.014   1_455  S
O1363      C1369   1.270       .  A
O1363     Co1380   1.947       .  S
O1364      C1370   1.283       .  A
O1364     Co1379   1.984       .  S
O1365      C1368   1.279       .  A
O1365     Co1382   2.015       .  S
O1366      C1367   1.274       .  A
O1366     Co1381   1.988   1_455  S
C1367      C1648   1.470       .  S
C1368      C1561   1.481       .  S
C1369      C1571   1.467       .  S
C1370      C1638   1.475       .  S
O1371      C1384   1.275       .  A
O1371     Co1379   1.966       .  S
O1372      C1385   1.274       .  A
O1372     Co1380   1.972       .  S
O1373      C1386   1.303       .  A
O1373     Co1381   2.070   1_455  S
O1374      C1387   1.294       .  A
O1374     Co1382   2.033       .  S
O1375      C1387   1.278       .  A
O1375     Co1380   1.985       .  S
O1376      C1386   1.275       .  A
O1376     Co1379   1.981       .  S
O1377      C1384   1.294       .  A
O1377     Co3038   2.020   1_455  S
O1378      C1385   1.295       .  A
O1378     Co3037   2.036       .  S
Co1379     O3039   1.882   1_455  S
Co1380     O1383   1.882       .  S
Co1381     O3017   2.041       .  S
Co1381     O3034   2.036       .  S
Co1381     O3039   2.014       .  S
Co1382     O3018   2.014       .  S
Co1382     O3033   2.020       .  S
Co1382     O1383   1.959       .  S
O1383     Co3035   1.883       .  S
O1383     Co3037   2.014       .  S
C1384      C1451   1.476       .  S
C1385      C1481   1.493       .  S
C1386      C1491   1.518       .  S
C1387      C1441   1.483       .  S
O1388      C1396   1.304       .  A
O1388     Co1408   2.068   1_455  S
O1389      C1397   1.268       .  A
O1389     Co3065   1.987       .  S
O1390      C1398   1.286       .  A
O1390     Co1410   1.900       .  S
O1391      C1399   1.276       .  A
O1391     Co1411   1.959       .  S
O1392      C1398   1.297       .  A
O1392     Co1409   2.071   1_455  S
O1393      C1399   1.310       .  A
O1393     Co3064   2.103       .  S
O1394      C1397   1.267       .  A
O1394     Co1411   1.963       .  S
O1395      C1396   1.288       .  A
O1395     Co1410   2.026       .  S
C1396      C1628   1.506       .  S
C1397      C1538   1.452       .  S
C1398      C1621   1.486       .  S
C1399      C1548   1.491       .  S
O1400      C1413   1.283       .  A
O1400     Co3064   2.059       .  S
O1401      C1414   1.272       .  A
O1401     Co1409   1.992   1_455  S
O1402      C1415   1.291       .  A
O1402     Co1410   2.049       .  S
O1403      C1416   1.273       .  A
O1403     Co1411   1.990       .  S
O1404      C1416   1.289       .  A
O1404     Co3065   2.016       .  S
O1405      C1415   1.275       .  A
O1405     Co1408   2.019   1_455  S
O1406      C1413   1.261       .  A
O1406     Co1411   1.943       .  S
O1407      C1414   1.287       .  A
O1407     Co1410   2.057       .  S
Co1408     O3049   2.104       .  S
Co1408     O3056   2.059       .  S
Co1408     O1412   2.019       .  S
Co1409     O3045   1.987       .  S
Co1409     O3060   2.016       .  S
Co1409     O1412   2.070       .  S
Co1410     O1412   1.880   1_455  S
Co1411     O3068   1.925       .  S
O1412     Co3067   1.925       .  S
C1413      C1461   1.477       .  S
C1414      C1428   1.486       .  S
C1415      C1468   1.491       .  S
C1416      C1421   1.488       .  S
C1417      C1418   1.418       .  A
C1417      C1422   1.403       .  A
C1417      H1424   1.083       .  S
C1418      C1419   1.398       .  A
C1419      C1420   1.395       .  A
C1419      F1426   1.357       .  S
C1420      C1421   1.416       .  A
C1420      H1425   1.082       .  S
C1421      C1422   1.401       .  A
C1422      F1423   1.357       .  S
C1427      C1428   1.400       .  A
C1427      C1432   1.399       .  A
C1427      H1434   1.084       .  S
C1428      C1429   1.408       .  A
C1429      C1430   1.415       .  A
C1429      F1436   1.355       .  S
C1430      C1431   1.409       .  A
C1430      H1435   1.083       .  S
C1431      C1432   1.415       .  A
C1432      F1433   1.359       .  S
C1437      C1438   1.398       .  A
C1437      C1442   1.396       .  A
C1437      H1444   1.084       .  S
C1438      C1439   1.403       .  A
C1439      C1440   1.410       .  A
C1439      F1446   1.346       .  S
C1440      C1441   1.404       .  A
C1440      H1445   1.083       .  S
C1441      C1442   1.412       .  A
C1442      F1443   1.358       .  S
C1447      C1448   1.418       .  A
C1447      C1452   1.392       .  A
C1447      H1454   1.082       .  S
C1448      C1449   1.393       .  A
C1449      C1450   1.394       .  A
C1449      F1456   1.358       .  S
C1450      C1451   1.417       .  A
C1450      H1455   1.077       .  S
C1451      C1452   1.392       .  A
C1452      F1453   1.357       .  S
C1457      C1458   1.400       .  A
C1457      C1462   1.395       .  A
C1457      H1464   1.079       .  S
C1458      C1459   1.400       .  A
C1459      C1460   1.406       .  A
C1459      F1466   1.346       .  S
C1460      C1461   1.405       .  A
C1460      H1465   1.083       .  S
C1461      C1462   1.406       .  A
C1462      F1463   1.358       .  S
C1467      C1468   1.411       .  A
C1467      C1472   1.407       .  A
C1467      H1474   1.083       .  S
C1468      C1469   1.406       .  A
C1469      C1470   1.394       .  A
C1469      F1476   1.357       .  S
C1470      C1471   1.409       .  A
C1470      H1475   1.083       .  S
C1471      C1472   1.409       .  A
C1472      F1473   1.357       .  S
C1477      C1478   1.419       .  A
C1477      C1482   1.404       .  A
C1477      H1484   1.083       .  S
C1478      C1479   1.396       .  A
C1479      C1480   1.399       .  A
C1479      F1486   1.357       .  S
C1480      C1481   1.419       .  A
C1480      H1485   1.083       .  S
C1481      C1482   1.400       .  A
C1482      F1483   1.357       .  S
C1487      C1488   1.418       .  A
C1487      C1492   1.416       .  A
C1487      H1494   1.078       .  S
C1488      C1489   1.398       .  A
C1489      C1490   1.403       .  A
C1489      F1496   1.358       .  S
C1490      C1491   1.423       .  A
C1490      H1495   1.083       .  S
C1491      C1492   1.404       .  A
C1492      F1493   1.356       .  S
C1497      C1498   1.405       .  A
C1497      C1502   1.406       .  A
C1497      H1504   1.083       .  S
C1498      C1499   1.411       .  A
C1499      C1500   1.376       .  A
C1499      F1506   1.357       .  S
C1500      C1501   1.396       .  A
C1500      H1505   1.083       .  S
C1501      C1502   1.413       .  A
C1502      F1503   1.357       .  S
C1507      C1508   1.397       .  A
C1507      C1512   1.389       .  A
C1507      H1514   1.084       .  S
C1508      C1509   1.413       .  A
C1509      C1510   1.406       .  A
C1509      F1516   1.357       .  S
C1510      C1511   1.403       .  A
C1510      H1515   1.083       .  S
C1511      C1512   1.413       .  A
C1512      F1513   1.358       .  S
C1517      C1518   1.401       .  A
C1517      C1522   1.399       .  A
C1517      H1524   1.084       .  S
C1518      C1519   1.408       .  A
C1519      C1520   1.408       .  A
C1519      F1526   1.353       .  S
C1520      C1521   1.405       .  A
C1520      H1525   1.083       .  S
C1521      C1522   1.411       .  A
C1522      F1523   1.358       .  S
C1527      C1528   1.408       .  A
C1527      C1532   1.395       .  A
C1527      H1534   1.083       .  S
C1528      C1529   1.392       .  A
C1529      C1530   1.386       .  A
C1529      F1536   1.358       .  S
C1530      C1531   1.408       .  A
C1530      H1535   1.084       .  S
C1531      C1532   1.397       .  A
C1532      F1533   1.357       .  S
C1537      C1538   1.406       .  A
C1537      C1542   1.390       .  A
C1537      H1544   1.084       .  S
C1538      C1539   1.400       .  A
C1539      C1540   1.398       .  A
C1539      F1546   1.357       .  S
C1540      C1541   1.404       .  A
C1540      H1545   1.083       .  S
C1541      C1542   1.396       .  A
C1542      F1543   1.356       .  S
C1547      C1548   1.405       .  A
C1547      C1552   1.395       .  A
C1547      H1554   1.083       .  S
C1548      C1549   1.411       .  A
C1549      C1550   1.404       .  A
C1549      F1556   1.356       .  S
C1550      C1551   1.407       .  A
C1550      H1555   1.083       .  S
C1551      C1552   1.410       .  A
C1552      F1553   1.352       .  S
C1557      C1558   1.403       .  A
C1557      C1562   1.390       .  A
C1557      H1564   1.078       .  S
C1558      C1559   1.402       .  A
C1559      C1560   1.403       .  A
C1559      F1566   1.358       .  S
C1560      C1561   1.413       .  A
C1560      H1565   1.083       .  S
C1561      C1562   1.401       .  A
C1562      F1563   1.357       .  S
C1567      C1568   1.398       .  A
C1567      C1572   1.392       .  A
C1567      H1574   1.083       .  S
C1568      C1569   1.411       .  A
C1569      C1570   1.402       .  A
C1569      F1576   1.358       .  S
C1570      C1571   1.401       .  A
C1570      H1575   1.083       .  S
C1571      C1572   1.399       .  A
C1572      F1573   1.347       .  S
C1577      C1578   1.408       .  A
C1577      C1582   1.378       .  A
C1577      H1584   1.081       .  S
C1578      C1579   1.400       .  A
C1579      C1580   1.399       .  A
C1579      F1586   1.357       .  S
C1580      C1581   1.411       .  A
C1580      H1585   1.082       .  S
C1581      C1582   1.392       .  A
C1582      F1583   1.358       .  S
C1587      C1588   1.417       .  A
C1587      C1592   1.403       .  A
C1587      H1594   1.083       .  S
C1588      C1589   1.398       .  A
C1589      C1590   1.397       .  A
C1589      F1596   1.357       .  S
C1590      C1591   1.416       .  A
C1590      H1595   1.083       .  S
C1591      C1592   1.400       .  A
C1592      F1593   1.357       .  S
C1597      C1598   1.413       .  A
C1597      C1602   1.408       .  A
C1597      H1604   1.081       .  S
C1598      C1599   1.395       .  A
C1599      C1600   1.393       .  A
C1599      F1606   1.358       .  S
C1600      C1601   1.416       .  A
C1600      H1605   1.083       .  S
C1601      C1602   1.405       .  A
C1602      F1603   1.357       .  S
C1607      C1608   1.402       .  A
C1607      C1612   1.387       .  A
C1607      H1614   1.085       .  S
C1608      C1609   1.408       .  A
C1609      C1610   1.411       .  A
C1609      F1616   1.356       .  S
C1610      C1611   1.408       .  A
C1610      H1615   1.082       .  S
C1611      C1612   1.402       .  A
C1612      F1613   1.359       .  S
C1617      C1618   1.408       .  A
C1617      C1622   1.395       .  A
C1617      H1624   1.073       .  S
C1618      C1619   1.400       .  A
C1619      C1620   1.402       .  A
C1619      F1626   1.357       .  S
C1620      C1621   1.416       .  A
C1620      H1625   1.083       .  S
C1621      C1622   1.401       .  A
C1622      F1623   1.357       .  S
C1627      C1628   1.414       .  A
C1627      C1632   1.409       .  A
C1627      H1634   1.075       .  S
C1628      C1629   1.407       .  A
C1629      C1630   1.403       .  A
C1629      F1636   1.357       .  S
C1630      C1631   1.410       .  A
C1630      H1635   1.078       .  S
C1631      C1632   1.403       .  A
C1632      F1633   1.357       .  S
C1637      C1638   1.392       .  A
C1637      C1642   1.384       .  A
C1637      H1644   1.084       .  S
C1638      C1639   1.415       .  A
C1639      C1640   1.406       .  A
C1639      F1646   1.354       .  S
C1640      C1641   1.402       .  A
C1640      H1645   1.083       .  S
C1641      C1642   1.418       .  A
C1642      F1643   1.358       .  S
C1647      C1648   1.410       .  A
C1647      C1652   1.382       .  A
C1647      H1654   1.084       .  S
C1648      C1649   1.400       .  A
C1649      C1650   1.398       .  A
C1649      F1656   1.358       .  S
C1650      C1651   1.413       .  A
C1650      H1655   1.081       .  S
C1651      C1652   1.397       .  A
C1652      F1653   1.358       .  S
O1657      C1665   1.271       .  A
O1657     Co1677   1.958       .  S
O1658      C1666   1.282       .  A
O1658     Co1678   2.009       .  S
O1659      C1667   1.274       .  A
O1659     Co1679   2.008       .  S
O1660      C1668   1.265       .  A
O1660     Co1680   1.985       .  S
O1661      C1667   1.281       .  A
O1661     Co2092   2.010   1_554  S
O1662      C1668   1.271       .  A
O1662     Co2091   1.987       .  S
O1663      C1666   1.270       .  A
O1663     Co1680   1.980       .  S
O1664      C1665   1.272       .  A
O1664     Co1679   2.016       .  S
C1665      C2065   1.477       .  S
C1666      C2032   1.485       .  S
C1667      C2045   1.494       .  S
C1668      C2055   1.480       .  S
O1669      C1682   1.279       .  A
O1669     Co2091   2.006       .  S
O1670      C1683   1.272       .  A
O1670     Co2092   1.998   1_554  S
O1671      C1684   1.287       .  A
O1671     Co1679   2.013       .  S
O1672      C1685   1.282       .  A
O1672     Co1680   1.994       .  S
O1673      C1685   1.272       .  A
O1673     Co1678   1.981       .  S
O1674      C1684   1.280       .  A
O1674     Co1677   1.997       .  S
O1675      C1682   1.292       .  A
O1675     Co1680   2.010       .  S
O1676      C1683   1.282       .  A
O1676     Co1679   2.016       .  S
Co1677     O2076   1.992   1_554  S
Co1677     O2083   2.005   1_554  S
Co1677     O1681   1.934       .  S
Co1678     O2075   2.017       .  S
Co1678     O2084   1.999       .  S
Co1678     O2095   2.035       .  S
Co1679     O1681   2.101       .  S
Co1680     O2095   2.093       .  S
O1681     Co2092   2.037   1_554  S
O1681     Co2094   2.098   1_554  S
C1682      C2002   1.487       .  S
C1683      C2015   1.497       .  S
C1684      C2022   1.471       .  S
C1685      C1992   1.470       .  S
O1686      C1694   1.302       .  A
O1686     Co1706   2.068       .  S
O1687      C1695   1.298       .  A
O1687     Co1707   2.078       .  S
O1688      C1696   1.274       .  A
O1688     Co2122   1.974       .  S
O1689      C1697   1.283       .  A
O1689     Co2123   2.006   1_554  S
O1690      C1696   1.271       .  A
O1690     Co1707   1.997       .  S
O1691      C1697   1.302       .  A
O1691     Co1706   2.071       .  S
O1692      C1695   1.281       .  A
O1692     Co1709   1.882       .  S
O1693      C1694   1.276       .  A
O1693     Co1708   1.958       .  S
C1694      C1982   1.468       .  S
C1695      C1955   1.450       .  S
C1696      C1972   1.471       .  S
C1697      C1965   1.492       .  S
O1698      C1711   1.269       .  A
O1698     Co1706   1.988       .  S
O1699      C1712   1.280       .  A
O1699     Co1707   2.002       .  S
O1700      C1713   1.265       .  A
O1700     Co1708   1.969       .  S
O1701      C1714   1.286       .  A
O1701     Co1709   2.064       .  S
O1702      C1714   1.270       .  A
O1702     Co1707   1.985       .  S
O1703      C1713   1.279       .  A
O1703     Co1706   2.027       .  S
O1704      C1711   1.288       .  A
O1704     Co2123   2.052   1_554  S
O1705      C1712   1.267       .  A
O1705     Co2122   1.954       .  S
Co1706     O1710   2.002   1_554  S
Co1707     O2124   2.058       .  S
Co1708     O2102   1.971   1_554  S
Co1708     O2119   1.958   1_554  S
Co1708     O1710   1.936   1_554  S
Co1709     O2103   2.010       .  S
Co1709     O2118   2.046       .  S
Co1709     O2124   1.872       .  S
O1710     Co2121   2.054       .  S
O1710     Co2123   1.873       .  S
C1711      C1915   1.476       .  S
C1712      C1945   1.449       .  S
C1713      C1922   1.479       .  S
C1714      C1932   1.480       .  S
O1715      C1723   1.300       .  A
O1715     Co1735   2.032       .  S
O1716      C1724   1.249       .  A
O1716     Co1736   1.977       .  S
O1717      C1725   1.271       .  A
O1717     Co2565   2.014       .  S
O1718      C1726   1.274       .  A
O1718     Co1738   1.985   1_545  S
O1719      C1725   1.268       .  A
O1719     Co1736   1.986       .  S
O1720      C1726   1.298       .  A
O1720     Co1735   2.038       .  S
O1721      C1724   1.253       .  A
O1721     Co2566   2.054       .  S
O1722      C1723   1.280       .  A
O1722     Co1737   2.011       .  S
C1723      C1902   1.500       .  S
C1724      C1872   1.472       .  S
C1725      C1885   1.491       .  S
C1726      C1892   1.490       .  S
O1727      C1740   1.276       .  A
O1727     Co1735   2.000       .  S
O1728      C1741   1.261       .  A
O1728     Co1736   1.968       .  S
O1729      C1742   1.269       .  A
O1729     Co1737   2.008       .  S
O1730      C1743   1.286       .  A
O1730     Co2566   1.915       .  S
O1731      C1743   1.301       .  A
O1731     Co1736   2.094       .  S
O1732      C1742   1.263       .  A
O1732     Co1735   1.986       .  S
O1733      C1740   1.284       .  A
O1733     Co1738   1.992   1_545  S
O1734      C1741   1.274       .  A
O1734     Co2565   2.006       .  S
Co1735     O1739   2.056       .  S
Co1736     O2567   2.087       .  S
Co1737     O2545   2.013   1_545  S
Co1737     O2562   2.006   1_545  S
Co1737     O1739   2.063       .  S
Co1738     O2549   2.055       .  S
Co1738     O2558   1.915       .  S
Co1738     O1739   1.977   1_565  S
O1739     Co2564   2.088   1_545  S
C1740      C1925   1.481       .  S
C1741      C2012   1.469       .  S
C1742      C2025   1.476       .  S
C1743      C1912   1.476       .  S
O1744      C1752   1.272       .  A
O1744     Co1764   1.957   1_545  S
O1745      C1753   1.301       .  A
O1745     Co2593   2.057       .  S
O1746      C1754   1.272       .  A
O1746     Co1766   1.996       .  S
O1747      C1755   1.296       .  A
O1747     Co1767   2.032       .  S
O1748      C1754   1.285       .  A
O1748     Co1765   2.064       .  S
O1749      C1755   1.284       .  A
O1749     Co2592   2.003       .  S
O1750      C1753   1.291       .  A
O1750     Co1767   1.988       .  S
O1751      C1752   1.291       .  A
O1751     Co1766   2.021       .  S
C1752      C1862   1.477       .  S
C1753      C1832   1.486       .  S
C1754      C1852   1.493       .  S
C1755      C1845   1.498       .  S
O1756      C1769   1.276       .  A
O1756     Co2592   1.967       .  S
O1757      C1770   1.288       .  A
O1757     Co1765   1.878       .  S
O1758      C1771   1.266       .  A
O1758     Co1766   1.983       .  S
O1759      C1772   1.275       .  A
O1759     Co1767   1.982       .  S
O1760      C1772   1.288       .  A
O1760     Co2593   2.047       .  S
O1761      C1771   1.275       .  A
O1761     Co1764   1.995   1_545  S
O1762      C1769   1.277       .  A
O1762     Co1767   2.000       .  S
O1763      C1770   1.300       .  A
O1763     Co1766   2.069       .  S
Co1764     O2577   2.002       .  S
Co1764     O2584   1.967       .  S
Co1764     O1768   1.890   1_565  S
Co1765     O2573   2.057   1_545  S
Co1765     O2588   2.047   1_545  S
Co1765     O1768   1.854       .  S
Co1766     O1768   2.017       .  S
Co1767     O2596   1.913       .  S
O1768     Co2595   1.912   1_545  S
C1769      C1995   1.460       .  S
C1770      C1942   1.440       .  S
C1771      C2005   1.486       .  S
C1772      C1935   1.487       .  S
O1773      C1781   1.273       .  A
O1773     Co1793   1.983       .  S
O1774      C1782   1.284       .  A
O1774     Co1794   2.023       .  S
O1775      C1783   1.309       .  A
O1776      C1784   1.279       .  A
O1777      C1783   1.287       .  A
O1777     Co1794   1.884       .  S
O1778      C1784   1.282       .  A
O1778     Co1793   1.979       .  S
O1779      C1782   1.272       .  A
O1779     Co1796   1.979       .  S
O1780      C1781   1.267       .  A
O1780     Co1795   1.975       .  S
C1781      C2062   1.481       .  S
C1782      C1975   1.484       .  S
C1783      C1985   1.465       .  S
C1784      C2052   1.472       .  S
O1785      C1798   1.274       .  A
O1785     Co1793   1.958       .  S
O1786      C1799   1.278       .  A
O1786     Co1794   2.008       .  S
O1787      C1800   1.304       .  A
O1787     Co1795   2.075       .  S
O1788      C1801   1.289       .  A
O1788     Co1796   2.000       .  S
O1789      C1801   1.309       .  A
O1789     Co1794   2.098       .  S
O1790      C1800   1.274       .  A
O1790     Co1793   1.973       .  S
O1791      C1798   1.295       .  A
O1792      C1799   1.281       .  A
Co1794     O1797   1.849       .  S
Co1796     O1797   1.923       .  S
C1798      C1865   1.473       .  S
C1799      C1895   1.497       .  S
C1800      C1905   1.516       .  S
C1801      C1855   1.493       .  S
O1802      C1810   1.305       .  A
O1802     Co1822   2.071       .  S
O1803      C1811   1.267       .  A
O1804      C1812   1.286       .  A
O1804     Co1824   1.896       .  S
O1805      C1813   1.275       .  A
O1805     Co1825   1.958       .  S
O1806      C1812   1.298       .  A
O1806     Co1823   2.075       .  S
O1807      C1813   1.310       .  A
O1808      C1811   1.267       .  A
O1808     Co1825   1.963       .  S
O1809      C1810   1.287       .  A
O1809     Co1824   2.024       .  S
C1810      C2042   1.505       .  S
C1811      C1952   1.453       .  S
C1812      C2035   1.487       .  S
C1813      C1962   1.489       .  S
O1814      C1827   1.283       .  A
O1815      C1828   1.272       .  A
O1815     Co1823   1.992       .  S
O1816      C1829   1.291       .  A
O1816     Co1824   2.051       .  S
O1817      C1830   1.273       .  A
O1817     Co1825   1.987       .  S
O1818      C1830   1.289       .  A
O1819      C1829   1.275       .  A
O1819     Co1822   2.017       .  S
O1820      C1827   1.261       .  A
O1820     Co1825   1.941       .  S
O1821      C1828   1.286       .  A
O1821     Co1824   2.055       .  S
Co1822     O1826   2.020       .  S
Co1823     O1826   2.071       .  S
Co1824     O1826   1.877       .  S
C1827      C1875   1.477       .  S
C1828      C1842   1.486       .  S
C1829      C1882   1.491       .  S
C1830      C1835   1.487       .  S
C1831      C1832   1.418       .  A
C1831      C1836   1.403       .  A
C1831      H1838   1.083       .  S
C1832      C1833   1.397       .  A
C1833      C1834   1.393       .  A
C1833      F1840   1.357       .  S
C1834      C1835   1.416       .  A
C1834      H1839   1.082       .  S
C1835      C1836   1.401       .  A
C1836      F1837   1.357       .  S
C1841      C1842   1.400       .  A
C1841      C1846   1.399       .  A
C1841      H1848   1.084       .  S
C1842      C1843   1.408       .  A
C1843      C1844   1.414       .  A
C1843      F1850   1.354       .  S
C1844      C1845   1.408       .  A
C1844      H1849   1.083       .  S
C1845      C1846   1.415       .  A
C1846      F1847   1.359       .  S
C1851      C1852   1.403       .  A
C1851      C1856   1.405       .  A
C1851      H1858   1.084       .  S
C1852      C1853   1.403       .  A
C1853      C1854   1.411       .  A
C1853      F1860   1.346       .  S
C1854      C1855   1.405       .  A
C1854      H1859   1.083       .  S
C1855      C1856   1.411       .  A
C1856      F1857   1.357       .  S
C1861      C1862   1.418       .  A
C1861      C1866   1.390       .  A
C1861      H1868   1.082       .  S
C1862      C1863   1.394       .  A
C1863      C1864   1.395       .  A
C1863      F1870   1.358       .  S
C1864      C1865   1.418       .  A
C1864      H1869   1.078       .  S
C1865      C1866   1.391       .  A
C1866      F1867   1.357       .  S
C1871      C1872   1.398       .  A
C1871      C1876   1.395       .  A
C1871      H1878   1.078       .  S
C1872      C1873   1.400       .  A
C1873      C1874   1.405       .  A
C1873      F1880   1.346       .  S
C1874      C1875   1.405       .  A
C1874      H1879   1.083       .  S
C1875      C1876   1.407       .  A
C1876      F1877   1.358       .  S
C1881      C1882   1.411       .  A
C1881      C1886   1.407       .  A
C1881      H1888   1.083       .  S
C1882      C1883   1.406       .  A
C1883      C1884   1.394       .  A
C1883      F1890   1.358       .  S
C1884      C1885   1.409       .  A
C1884      H1889   1.083       .  S
C1885      C1886   1.409       .  A
C1886      F1887   1.357       .  S
C1891      C1892   1.418       .  A
C1891      C1896   1.404       .  A
C1891      H1898   1.083       .  S
C1892      C1893   1.396       .  A
C1893      C1894   1.401       .  A
C1893      F1900   1.357       .  S
C1894      C1895   1.421       .  A
C1894      H1899   1.082       .  S
C1895      C1896   1.401       .  A
C1896      F1897   1.357       .  S
C1901      C1902   1.417       .  A
C1901      C1906   1.418       .  A
C1901      H1908   1.078   1_545  S
C1902      C1903   1.399       .  A
C1903      C1904   1.403       .  A
C1903      F1910   1.358       .  S
C1904      C1905   1.422       .  A
C1904      H1909   1.084       .  S
C1905      C1906   1.405       .  A
C1906      F1907   1.356       .  S
C1911      C1912   1.406       .  A
C1911      C1916   1.408       .  A
C1911      H1918   1.083       .  S
C1912      C1913   1.409       .  A
C1913      C1914   1.376       .  A
C1913      F1920   1.356       .  S
C1914      C1915   1.397       .  A
C1914      H1919   1.083       .  S
C1915      C1916   1.412       .  A
C1916      F1917   1.357   1_554  S
C1921      C1922   1.396       .  A
C1921      C1926   1.390       .  A
C1921      H1928   1.084       .  S
C1922      C1923   1.414       .  A
C1923      C1924   1.406       .  A
C1923      F1930   1.357       .  S
C1924      C1925   1.403       .  A
C1924      H1929   1.083       .  S
C1925      C1926   1.414       .  A
C1926      F1927   1.358       .  S
C1931      C1932   1.401       .  A
C1931      C1936   1.399       .  A
C1931      H1938   1.084       .  S
C1932      C1933   1.408       .  A
C1933      C1934   1.408       .  A
C1933      F1940   1.353       .  S
C1934      C1935   1.405       .  A
C1934      H1939   1.083       .  S
C1935      C1936   1.412       .  A
C1936      F1937   1.359       .  S
C1941      C1942   1.408       .  A
C1941      C1946   1.395       .  A
C1941      H1948   1.083       .  S
C1942      C1943   1.391       .  A
C1943      C1944   1.384       .  A
C1943      F1950   1.358       .  S
C1944      C1945   1.408       .  A
C1944      H1949   1.084       .  S
C1945      C1946   1.397       .  A
C1946      F1947   1.357       .  S
C1951      C1952   1.408       .  A
C1951      C1956   1.391       .  A
C1951      H1958   1.084       .  S
C1952      C1953   1.398       .  A
C1953      C1954   1.397       .  A
C1953      F1960   1.357       .  S
C1954      C1955   1.403       .  A
C1954      H1959   1.083       .  S
C1955      C1956   1.396       .  A
C1956      F1957   1.357       .  S
C1961      C1962   1.404       .  A
C1961      C1966   1.395       .  A
C1961      H1968   1.083       .  S
C1962      C1963   1.410       .  A
C1963      C1964   1.403       .  A
C1963      F1970   1.356       .  S
C1964      C1965   1.407       .  A
C1964      H1969   1.083       .  S
C1965      C1966   1.409       .  A
C1966      F1967   1.352       .  S
C1971      C1972   1.406       .  A
C1971      C1976   1.393       .  A
C1971      H1978   1.078       .  S
C1972      C1973   1.401       .  A
C1973      C1974   1.402       .  A
C1973      F1980   1.358       .  S
C1974      C1975   1.414       .  A
C1974      H1979   1.083       .  S
C1975      C1976   1.400       .  A
C1976      F1977   1.357       .  S
C1981      C1982   1.396       .  A
C1981      C1986   1.389       .  A
C1981      H1988   1.084       .  S
C1982      C1983   1.413       .  A
C1983      C1984   1.400       .  A
C1983      F1990   1.357       .  S
C1984      C1985   1.398       .  A
C1984      H1989   1.083       .  S
C1985      C1986   1.404       .  A
C1986      F1987   1.350       .  S
C1991      C1992   1.408       .  A
C1991      C1996   1.377       .  A
C1991      H1998   1.081       .  S
C1992      C1993   1.401       .  A
C1993      C1994   1.402       .  A
C1993      F2000   1.357       .  S
C1994      C1995   1.412       .  A
C1994      H1999   1.081       .  S
C1995      C1996   1.392       .  A
C1996      F1997   1.359       .  S
C2001      C2002   1.418       .  A
C2001      C2006   1.404       .  A
C2001      H2008   1.083       .  S
C2002      C2003   1.397       .  A
C2003      C2004   1.395       .  A
C2003      F2010   1.357       .  S
C2004      C2005   1.414       .  A
C2004      H2009   1.083       .  S
C2005      C2006   1.400       .  A
C2006      F2007   1.357       .  S
C2011      C2012   1.414       .  A
C2011      C2016   1.409       .  A
C2011      H2018   1.083       .  S
C2012      C2013   1.396       .  A
C2013      C2014   1.393       .  A
C2013      F2020   1.358       .  S
C2014      C2015   1.415       .  A
C2014      H2019   1.083       .  S
C2015      C2016   1.406       .  A
C2016      F2017   1.357       .  S
C2021      C2022   1.401       .  A
C2021      C2026   1.387       .  A
C2021      H2028   1.085       .  S
C2022      C2023   1.407       .  A
C2023      C2024   1.411       .  A
C2023      F2030   1.356       .  S
C2024      C2025   1.408       .  A
C2024      H2029   1.082       .  S
C2025      C2026   1.403       .  A
C2026      F2027   1.358       .  S
C2031      C2032   1.412       .  A
C2031      C2036   1.393       .  A
C2031      H2038   1.075       .  S
C2032      C2033   1.401       .  A
C2033      C2034   1.404       .  A
C2033      F2040   1.357       .  S
C2034      C2035   1.418       .  A
C2034      H2039   1.083       .  S
C2035      C2036   1.399       .  A
C2036      F2037   1.357       .  S
C2041      C2042   1.414       .  A
C2041      C2046   1.408       .  A
C2041      H2048   1.077       .  S
C2042      C2043   1.408       .  A
C2043      C2044   1.403       .  A
C2043      F2050   1.357       .  S
C2044      C2045   1.408       .  A
C2044      H2049   1.077       .  S
C2045      C2046   1.403       .  A
C2046      F2047   1.357       .  S
C2051      C2052   1.391       .  A
C2051      C2056   1.381       .  A
C2051      H2058   1.084       .  S
C2052      C2053   1.414       .  A
C2053      C2054   1.406       .  A
C2053      F2060   1.355       .  S
C2054      C2055   1.402       .  A
C2054      H2059   1.083       .  S
C2055      C2056   1.416       .  A
C2056      F2057   1.356       .  S
C2061      C2062   1.413       .  A
C2061      C2066   1.385       .  A
C2061      H2068   1.083       .  S
C2062      C2063   1.401       .  A
C2063      C2064   1.403       .  A
C2063      F2070   1.357       .  S
C2064      C2065   1.415       .  A
C2064      H2069   1.082       .  S
C2065      C2066   1.397       .  A
C2066      F2067   1.358       .  S
O2071      C2079   1.269       .  A
O2071     Co2091   1.950       .  S
O2072      C2080   1.280       .  A
O2072     Co2092   2.001       .  S
O2073      C2081   1.273       .  A
O2073     Co2093   2.004       .  S
O2074      C2082   1.264       .  A
O2074     Co2094   1.985       .  S
O2075      C2081   1.284       .  A
O2076      C2082   1.272       .  A
O2077      C2080   1.270       .  A
O2077     Co2094   1.986       .  S
O2078      C2079   1.272       .  A
O2078     Co2093   2.013       .  S
C2079      C2479   1.468       .  S
C2080      C2446   1.479       .  S
C2081      C2459   1.497       .  S
C2082      C2469   1.484       .  S
O2083      C2096   1.279       .  A
O2084      C2097   1.272       .  A
O2085      C2098   1.287       .  A
O2085     Co2093   2.015       .  S
O2086      C2099   1.280       .  A
O2086     Co2094   1.990       .  S
O2087      C2099   1.271       .  A
O2087     Co2092   1.982       .  S
O2088      C2098   1.280       .  A
O2088     Co2091   1.999       .  S
O2089      C2096   1.291       .  A
O2089     Co2094   2.009       .  S
O2090      C2097   1.283       .  A
O2090     Co2093   2.015       .  S
Co2091     O2095   1.932       .  S
Co2093     O2095   2.097       .  S
C2096      C2416   1.487       .  S
C2097      C2429   1.496       .  S
C2098      C2436   1.473       .  S
C2099      C2406   1.466       .  S
O2100      C2108   1.303       .  A
O2100     Co2120   2.077       .  S
O2101      C2109   1.298       .  A
O2101     Co2121   2.079       .  S
O2102      C2110   1.273       .  A
O2103      C2111   1.284       .  A
O2104      C2110   1.272       .  A
O2104     Co2121   1.998       .  S
O2105      C2111   1.301       .  A
O2105     Co2120   2.067       .  S
O2106      C2109   1.280       .  A
O2106     Co2123   1.882       .  S
O2107      C2108   1.275       .  A
O2107     Co2122   1.956       .  S
C2108      C2396   1.470       .  S
C2109      C2369   1.452       .  S
C2110      C2386   1.468       .  S
C2111      C2379   1.492       .  S
O2112      C2125   1.269       .  A
O2112     Co2120   1.989       .  S
O2113      C2126   1.280       .  A
O2113     Co2121   2.003       .  S
O2114      C2127   1.266       .  A
O2114     Co2122   1.973       .  S
O2115      C2128   1.285       .  A
O2115     Co2123   2.061       .  S
O2116      C2128   1.270       .  A
O2116     Co2121   1.987       .  S
O2117      C2127   1.277       .  A
O2117     Co2120   2.021       .  S
O2118      C2125   1.287       .  A
O2119      C2126   1.267       .  A
Co2120     O2124   2.006       .  S
Co2122     O2124   1.935       .  S
C2125      C2329   1.473       .  S
C2126      C2359   1.451       .  S
C2127      C2336   1.479       .  S
C2128      C2346   1.481       .  S
O2129      C2137   1.299       .  A
O2129     Co2149   2.032       .  S
O2130      C2138   1.250       .  A
O2130     Co2150   1.979       .  S
O2131      C2139   1.272       .  A
O2131     Co2979   2.015       .  S
O2132      C2140   1.275       .  A
O2132     Co2152   1.987   1_545  S
O2133      C2139   1.269       .  A
O2133     Co2150   1.987       .  S
O2134      C2140   1.298       .  A
O2134     Co2149   2.034       .  S
O2135      C2138   1.253       .  A
O2135     Co2980   2.056       .  S
O2136      C2137   1.278       .  A
O2136     Co2151   2.006       .  S
C2137      C2316   1.499       .  S
C2138      C2286   1.474       .  S
C2139      C2299   1.492       .  S
C2140      C2306   1.488       .  S
O2141      C2154   1.276       .  A
O2141     Co2149   1.999       .  S
O2142      C2155   1.261       .  A
O2142     Co2150   1.969       .  S
O2143      C2156   1.270       .  A
O2143     Co2151   2.007       .  S
O2144      C2157   1.286       .  A
O2144     Co2980   1.913       .  S
O2145      C2157   1.301       .  A
O2145     Co2150   2.092       .  S
O2146      C2156   1.264       .  A
O2146     Co2149   1.987       .  S
O2147      C2154   1.283       .  A
O2147     Co2152   1.991   1_545  S
O2148      C2155   1.274       .  A
O2148     Co2979   2.007       .  S
Co2149     O2153   2.054       .  S
Co2150     O2981   2.086       .  S
Co2151     O2959   2.015   1_545  S
Co2151     O2976   2.006   1_545  S
Co2151     O2153   2.062       .  S
Co2152     O2963   2.054       .  S
Co2152     O2972   1.913       .  S
Co2152     O2153   1.978   1_565  S
O2153     Co2978   2.086   1_545  S
C2154      C2339   1.481       .  S
C2155      C2426   1.470       .  S
C2156      C2439   1.475       .  S
C2157      C2326   1.473       .  S
O2158      C2166   1.272       .  A
O2158     Co2178   1.957       .  S
O2159      C2167   1.303       .  A
O2159     Co3007   2.065       .  S
O2160      C2168   1.271       .  A
O2160     Co2180   1.989       .  S
O2161      C2169   1.296       .  A
O2161     Co2181   2.031       .  S
O2162      C2168   1.284       .  A
O2162     Co2179   2.051       .  S
O2163      C2169   1.285       .  A
O2163     Co3006   2.004       .  S
O2164      C2167   1.291       .  A
O2164     Co2181   1.994       .  S
O2165      C2166   1.292       .  A
O2165     Co2180   2.022       .  S
C2166      C2276   1.476       .  S
C2167      C2246   1.490       .  S
C2168      C2266   1.480       .  S
C2169      C2259   1.498       .  S
O2170      C2183   1.276       .  A
O2170     Co3006   1.965       .  S
O2171      C2184   1.289       .  A
O2171     Co2179   1.882       .  S
O2172      C2185   1.265       .  A
O2172     Co2180   1.980       .  S
O2173      C2186   1.275       .  A
O2173     Co2181   1.984       .  S
O2174      C2186   1.288       .  A
O2174     Co3007   2.046       .  S
O2175      C2185   1.275       .  A
O2175     Co2178   1.998       .  S
O2176      C2183   1.277       .  A
O2176     Co2181   1.995       .  S
O2177      C2184   1.300       .  A
O2177     Co2180   2.070       .  S
Co2178     O2991   2.004   1_545  S
Co2178     O2998   1.965   1_545  S
Co2178     O2182   1.886       .  S
Co2179     O2987   2.065   1_545  S
Co2179     O3002   2.046   1_545  S
Co2179     O2182   1.853       .  S
Co2180     O2182   2.016       .  S
Co2181     O3010   1.912       .  S
O2182     Co3009   1.912   1_545  S
C2183      C2409   1.458       .  S
C2184      C2356   1.442       .  S
C2185      C2419   1.487       .  S
C2186      C2349   1.486       .  S
O2187      C2195   1.275       .  A
O2187     Co2207   1.966       .  S
O2188      C2196   1.278       .  A
O2188     Co2208   1.980       .  S
O2189      C2197   1.285       .  A
O2190      C2198   1.280       .  A
O2191      C2197   1.270       .  A
O2191     Co2208   1.947       .  S
O2192      C2198   1.283       .  A
O2192     Co2207   1.984       .  S
O2193      C2196   1.279       .  A
O2193     Co2210   2.015       .  S
O2194      C2195   1.274       .  A
O2194     Co2209   1.988       .  S
C2195      C2476   1.471       .  S
C2196      C2389   1.481       .  S
C2197      C2399   1.467       .  S
C2198      C2466   1.475       .  S
O2199      C2212   1.275       .  A
O2199     Co2207   1.967       .  S
O2200      C2213   1.274       .  A
O2200     Co2208   1.972       .  S
O2201      C2214   1.303       .  A
O2201     Co2209   2.070       .  S
O2202      C2215   1.294       .  A
O2202     Co2210   2.033       .  S
O2203      C2215   1.278       .  A
O2203     Co2208   1.986       .  S
O2204      C2214   1.275       .  A
O2204     Co2207   1.981       .  S
O2205      C2212   1.294       .  A
O2206      C2213   1.295       .  A
Co2208     O2211   1.882       .  S
Co2210     O2211   1.959       .  S
C2212      C2279   1.476       .  S
C2213      C2309   1.493       .  S
C2214      C2319   1.518       .  S
C2215      C2269   1.483       .  S
O2216      C2224   1.304       .  A
O2216     Co2236   2.068       .  S
O2217      C2225   1.268       .  A
O2218      C2226   1.286       .  A
O2218     Co2238   1.900       .  S
O2219      C2227   1.276       .  A
O2219     Co2239   1.959       .  S
O2220      C2226   1.297       .  A
O2220     Co2237   2.071       .  S
O2221      C2227   1.310       .  A
O2222      C2225   1.267       .  A
O2222     Co2239   1.963       .  S
O2223      C2224   1.288       .  A
O2223     Co2238   2.026       .  S
C2224      C2456   1.506       .  S
C2225      C2366   1.452       .  S
C2226      C2449   1.486       .  S
C2227      C2376   1.491       .  S
O2228      C2241   1.283       .  A
O2229      C2242   1.272       .  A
O2229     Co2237   1.992       .  S
O2230      C2243   1.291       .  A
O2230     Co2238   2.049       .  S
O2231      C2244   1.273       .  A
O2231     Co2239   1.990       .  S
O2232      C2244   1.289       .  A
O2233      C2243   1.275       .  A
O2233     Co2236   2.019       .  S
O2234      C2241   1.261       .  A
O2234     Co2239   1.943       .  S
O2235      C2242   1.287       .  A
O2235     Co2238   2.057       .  S
Co2236     O2240   2.019       .  S
Co2237     O2240   2.070       .  S
Co2238     O2240   1.880       .  S
C2241      C2289   1.477       .  S
C2242      C2256   1.487       .  S
C2243      C2296   1.491       .  S
C2244      C2249   1.489       .  S
C2245      C2246   1.418       .  A
C2245      C2250   1.403       .  A
C2245      H2252   1.083       .  S
C2246      C2247   1.398       .  A
C2247      C2248   1.396       .  A
C2247      F2254   1.357       .  S
C2248      C2249   1.416       .  A
C2248      H2253   1.082       .  S
C2249      C2250   1.401       .  A
C2250      F2251   1.357       .  S
C2255      C2256   1.400       .  A
C2255      C2260   1.399       .  A
C2255      H2262   1.084       .  S
C2256      C2257   1.408       .  A
C2257      C2258   1.414       .  A
C2257      F2264   1.355       .  S
C2258      C2259   1.409       .  A
C2258      H2263   1.083       .  S
C2259      C2260   1.415       .  A
C2260      F2261   1.359       .  S
C2265      C2266   1.398       .  A
C2265      C2270   1.396       .  A
C2265      H2272   1.084       .  S
C2266      C2267   1.403       .  A
C2267      C2268   1.410       .  A
C2267      F2274   1.346       .  S
C2268      C2269   1.404       .  A
C2268      H2273   1.083       .  S
C2269      C2270   1.412       .  A
C2270      F2271   1.358       .  S
C2275      C2276   1.418       .  A
C2275      C2280   1.392       .  A
C2275      H2282   1.081       .  S
C2276      C2277   1.393       .  A
C2277      C2278   1.394       .  A
C2277      F2284   1.358       .  S
C2278      C2279   1.417       .  A
C2278      H2283   1.077       .  S
C2279      C2280   1.392       .  A
C2280      F2281   1.357       .  S
C2285      C2286   1.400       .  A
C2285      C2290   1.395       .  A
C2285      H2292   1.078       .  S
C2286      C2287   1.400       .  A
C2287      C2288   1.406       .  A
C2287      F2294   1.346       .  S
C2288      C2289   1.405       .  A
C2288      H2293   1.083       .  S
C2289      C2290   1.406       .  A
C2290      F2291   1.358       .  S
C2295      C2296   1.411       .  A
C2295      C2300   1.407       .  A
C2295      H2302   1.083       .  S
C2296      C2297   1.406       .  A
C2297      C2298   1.394       .  A
C2297      F2304   1.357       .  S
C2298      C2299   1.409       .  A
C2298      H2303   1.083       .  S
C2299      C2300   1.409       .  A
C2300      F2301   1.357       .  S
C2305      C2306   1.419       .  A
C2305      C2310   1.404       .  A
C2305      H2312   1.083       .  S
C2306      C2307   1.396       .  A
C2307      C2308   1.399       .  A
C2307      F2314   1.357       .  S
C2308      C2309   1.419       .  A
C2308      H2313   1.083       .  S
C2309      C2310   1.400       .  A
C2310      F2311   1.357       .  S
C2315      C2316   1.418       .  A
C2315      C2320   1.416       .  A
C2315      H2322   1.078   1_545  S
C2316      C2317   1.397       .  A
C2317      C2318   1.403       .  A
C2317      F2324   1.358       .  S
C2318      C2319   1.423       .  A
C2318      H2323   1.083       .  S
C2319      C2320   1.404       .  A
C2320      F2321   1.356       .  S
C2325      C2326   1.405       .  A
C2325      C2330   1.406       .  A
C2325      H2332   1.083       .  S
C2326      C2327   1.410       .  A
C2327      C2328   1.376       .  A
C2327      F2334   1.357       .  S
C2328      C2329   1.396       .  A
C2328      H2333   1.083       .  S
C2329      C2330   1.413       .  A
C2330      F2331   1.357       .  S
C2335      C2336   1.397       .  A
C2335      C2340   1.389       .  A
C2335      H2342   1.084       .  S
C2336      C2337   1.413       .  A
C2337      C2338   1.406       .  A
C2337      F2344   1.357       .  S
C2338      C2339   1.403       .  A
C2338      H2343   1.083       .  S
C2339      C2340   1.413       .  A
C2340      F2341   1.358       .  S
C2345      C2346   1.401       .  A
C2345      C2350   1.399       .  A
C2345      H2352   1.084       .  S
C2346      C2347   1.408       .  A
C2347      C2348   1.408       .  A
C2347      F2354   1.353       .  S
C2348      C2349   1.405       .  A
C2348      H2353   1.083       .  S
C2349      C2350   1.411       .  A
C2350      F2351   1.358       .  S
C2355      C2356   1.408       .  A
C2355      C2360   1.395       .  A
C2355      H2362   1.083       .  S
C2356      C2357   1.391       .  A
C2357      C2358   1.385       .  A
C2357      F2364   1.358       .  S
C2358      C2359   1.408       .  A
C2358      H2363   1.084       .  S
C2359      C2360   1.397       .  A
C2360      F2361   1.357       .  S
C2365      C2366   1.406       .  A
C2365      C2370   1.390       .  A
C2365      H2372   1.084       .  S
C2366      C2367   1.400       .  A
C2367      C2368   1.398       .  A
C2367      F2374   1.357       .  S
C2368      C2369   1.404       .  A
C2368      H2373   1.083       .  S
C2369      C2370   1.396       .  A
C2370      F2371   1.356       .  S
C2375      C2376   1.405       .  A
C2375      C2380   1.395       .  A
C2375      H2382   1.083       .  S
C2376      C2377   1.411       .  A
C2377      C2378   1.403       .  A
C2377      F2384   1.356       .  S
C2378      C2379   1.407       .  A
C2378      H2383   1.083       .  S
C2379      C2380   1.410       .  A
C2380      F2381   1.352       .  S
C2385      C2386   1.403       .  A
C2385      C2390   1.390       .  A
C2385      H2392   1.078       .  S
C2386      C2387   1.402       .  A
C2387      C2388   1.403       .  A
C2387      F2394   1.358       .  S
C2388      C2389   1.413       .  A
C2388      H2393   1.083       .  S
C2389      C2390   1.401       .  A
C2390      F2391   1.357       .  S
C2395      C2396   1.398       .  A
C2395      C2400   1.392       .  A
C2395      H2402   1.083       .  S
C2396      C2397   1.411       .  A
C2397      C2398   1.402       .  A
C2397      F2404   1.358       .  S
C2398      C2399   1.402       .  A
C2398      H2403   1.083       .  S
C2399      C2400   1.399       .  A
C2400      F2401   1.347       .  S
C2405      C2406   1.408       .  A
C2405      C2410   1.378       .  A
C2405      H2412   1.081       .  S
C2406      C2407   1.400       .  A
C2407      C2408   1.399       .  A
C2407      F2414   1.357       .  S
C2408      C2409   1.411       .  A
C2408      H2413   1.082       .  S
C2409      C2410   1.392       .  A
C2410      F2411   1.358       .  S
C2415      C2416   1.417       .  A
C2415      C2420   1.403       .  A
C2415      H2422   1.083       .  S
C2416      C2417   1.398       .  A
C2417      C2418   1.397       .  A
C2417      F2424   1.357       .  S
C2418      C2419   1.416       .  A
C2418      H2423   1.083       .  S
C2419      C2420   1.399       .  A
C2420      F2421   1.357       .  S
C2425      C2426   1.413       .  A
C2425      C2430   1.408       .  A
C2425      H2432   1.082       .  S
C2426      C2427   1.395       .  A
C2427      C2428   1.393       .  A
C2427      F2434   1.358       .  S
C2428      C2429   1.416       .  A
C2428      H2433   1.083       .  S
C2429      C2430   1.405       .  A
C2430      F2431   1.357       .  S
C2435      C2436   1.402       .  A
C2435      C2440   1.387       .  A
C2435      H2442   1.085       .  S
C2436      C2437   1.408       .  A
C2437      C2438   1.411       .  A
C2437      F2444   1.356       .  S
C2438      C2439   1.408       .  A
C2438      H2443   1.082       .  S
C2439      C2440   1.402       .  A
C2440      F2441   1.359       .  S
C2445      C2446   1.408       .  A
C2445      C2450   1.395       .  A
C2445      H2452   1.073       .  S
C2446      C2447   1.400       .  A
C2447      C2448   1.402       .  A
C2447      F2454   1.357       .  S
C2448      C2449   1.416       .  A
C2448      H2453   1.083       .  S
C2449      C2450   1.401       .  A
C2450      F2451   1.357       .  S
C2455      C2456   1.414       .  A
C2455      C2460   1.409       .  A
C2455      H2462   1.075       .  S
C2456      C2457   1.407       .  A
C2457      C2458   1.403       .  A
C2457      F2464   1.357       .  S
C2458      C2459   1.411       .  A
C2458      H2463   1.079       .  S
C2459      C2460   1.403       .  A
C2460      F2461   1.357       .  S
C2465      C2466   1.392       .  A
C2465      C2470   1.384       .  A
C2465      H2472   1.084       .  S
C2466      C2467   1.415       .  A
C2467      C2468   1.406       .  A
C2467      F2474   1.354       .  S
C2468      C2469   1.402       .  A
C2468      H2473   1.083       .  S
C2469      C2470   1.418       .  A
C2470      F2471   1.358       .  S
C2475      C2476   1.410       .  A
C2475      C2480   1.382       .  A
C2475      H2482   1.084       .  S
C2476      C2477   1.400       .  A
C2477      C2478   1.398       .  A
C2477      F2484   1.358       .  S
C2478      C2479   1.413       .  A
C2478      H2483   1.081       .  S
C2479      C2480   1.397       .  A
C2480      F2481   1.358       .  S
O2485      C2493   1.271       .  A
O2485     Co2505   1.958       .  S
O2486      C2494   1.282       .  A
O2486     Co2506   2.009       .  S
O2487      C2495   1.274       .  A
O2487     Co2507   2.008       .  S
O2488      C2496   1.265       .  A
O2488     Co2508   1.986       .  S
O2489      C2495   1.281       .  A
O2489     Co2920   2.010   1_554  S
O2490      C2496   1.271       .  A
O2490     Co2919   1.987       .  S
O2491      C2494   1.269       .  A
O2491     Co2508   1.979       .  S
O2492      C2493   1.273       .  A
O2492     Co2507   2.016       .  S
C2493      C2893   1.477       .  S
C2494      C2860   1.486       .  S
C2495      C2873   1.494       .  S
C2496      C2883   1.480       .  S
O2497      C2510   1.279       .  A
O2497     Co2919   2.005       .  S
O2498      C2511   1.272       .  A
O2498     Co2920   1.999   1_554  S
O2499      C2512   1.287       .  A
O2499     Co2507   2.013       .  S
O2500      C2513   1.282       .  A
O2500     Co2508   1.995       .  S
O2501      C2513   1.272       .  A
O2501     Co2506   1.981       .  S
O2502      C2512   1.280       .  A
O2502     Co2505   1.997       .  S
O2503      C2510   1.293       .  A
O2503     Co2508   2.010       .  S
O2504      C2511   1.282       .  A
O2504     Co2507   2.016       .  S
Co2505     O2904   1.992   1_554  S
Co2505     O2911   2.006   1_554  S
Co2505     O2509   1.935       .  S
Co2506     O2903   2.017       .  S
Co2506     O2912   1.998       .  S
Co2506     O2923   2.035       .  S
Co2507     O2509   2.101       .  S
Co2508     O2923   2.093       .  S
O2509     Co2920   2.037   1_554  S
O2509     Co2922   2.098   1_554  S
C2510      C2830   1.487       .  S
C2511      C2843   1.497       .  S
C2512      C2850   1.472       .  S
C2513      C2820   1.470       .  S
O2514      C2522   1.302       .  A
O2514     Co2534   2.068       .  S
O2515      C2523   1.298       .  A
O2515     Co2535   2.078       .  S
O2516      C2524   1.274       .  A
O2516     Co2950   1.974       .  S
O2517      C2525   1.283       .  A
O2517     Co2951   2.006   1_554  S
O2518      C2524   1.271       .  A
O2518     Co2535   1.997       .  S
O2519      C2525   1.302       .  A
O2519     Co2534   2.071       .  S
O2520      C2523   1.281       .  A
O2520     Co2537   1.882       .  S
O2521      C2522   1.276       .  A
O2521     Co2536   1.958       .  S
C2522      C2810   1.467       .  S
C2523      C2783   1.450       .  S
C2524      C2800   1.471       .  S
C2525      C2793   1.492       .  S
O2526      C2539   1.269       .  A
O2526     Co2534   1.988       .  S
O2527      C2540   1.280       .  A
O2527     Co2535   2.001       .  S
O2528      C2541   1.265       .  A
O2528     Co2536   1.968       .  S
O2529      C2542   1.286       .  A
O2529     Co2537   2.064       .  S
O2530      C2542   1.270       .  A
O2530     Co2535   1.985       .  S
O2531      C2541   1.279       .  A
O2531     Co2534   2.028       .  S
O2532      C2539   1.288       .  A
O2532     Co2951   2.052   1_554  S
O2533      C2540   1.267       .  A
O2533     Co2950   1.955       .  S
Co2534     O2538   2.002   1_554  S
Co2535     O2952   2.058       .  S
Co2536     O2930   1.971   1_554  S
Co2536     O2947   1.959   1_554  S
Co2536     O2538   1.936   1_554  S
Co2537     O2931   2.010       .  S
Co2537     O2946   2.046       .  S
Co2537     O2952   1.873       .  S
O2538     Co2949   2.054       .  S
O2538     Co2951   1.873       .  S
C2539      C2743   1.476       .  S
C2540      C2773   1.449       .  S
C2541      C2750   1.479       .  S
C2542      C2760   1.481       .  S
O2543      C2551   1.300       .  A
O2543     Co2563   2.033       .  S
O2544      C2552   1.249       .  A
O2544     Co2564   1.976       .  S
O2545      C2553   1.271       .  A
O2546      C2554   1.275       .  A
O2546     Co2566   1.985       .  S
O2547      C2553   1.268       .  A
O2547     Co2564   1.987       .  S
O2548      C2554   1.298       .  A
O2548     Co2563   2.038       .  S
O2549      C2552   1.254       .  A
O2550      C2551   1.280       .  A
O2550     Co2565   2.010       .  S
C2551      C2730   1.500       .  S
C2552      C2700   1.472       .  S
C2553      C2713   1.491       .  S
C2554      C2720   1.491       .  S
O2555      C2568   1.276       .  A
O2555     Co2563   2.000       .  S
O2556      C2569   1.261       .  A
O2556     Co2564   1.968       .  S
O2557      C2570   1.270       .  A
O2557     Co2565   2.008       .  S
O2558      C2571   1.286       .  A
O2559      C2571   1.301       .  A
O2559     Co2564   2.095       .  S
O2560      C2570   1.263       .  A
O2560     Co2563   1.986       .  S
O2561      C2568   1.284       .  A
O2561     Co2566   1.991       .  S
O2562      C2569   1.274       .  A
Co2563     O2567   2.056       .  S
Co2565     O2567   2.063       .  S
Co2566     O2567   1.977       .  S
C2568      C2753   1.481       .  S
C2569      C2840   1.470       .  S
C2570      C2853   1.476       .  S
C2571      C2740   1.476       .  S
O2572      C2580   1.272       .  A
O2572     Co2592   1.956       .  S
O2573      C2581   1.301       .  A
O2574      C2582   1.272       .  A
O2574     Co2594   1.996       .  S
O2575      C2583   1.296       .  A
O2575     Co2595   2.032       .  S
O2576      C2582   1.285       .  A
O2576     Co2593   2.065       .  S
O2577      C2583   1.284       .  A
O2578      C2581   1.291       .  A
O2578     Co2595   1.989       .  S
O2579      C2580   1.291       .  A
O2579     Co2594   2.020       .  S
C2580      C2690   1.476       .  S
C2581      C2660   1.487       .  S
C2582      C2680   1.493       .  S
C2583      C2673   1.498       .  S
O2584      C2597   1.276       .  A
O2585      C2598   1.288       .  A
O2585     Co2593   1.878       .  S
O2586      C2599   1.266       .  A
O2586     Co2594   1.983       .  S
O2587      C2600   1.275       .  A
O2587     Co2595   1.982       .  S
O2588      C2600   1.288       .  A
O2589      C2599   1.275       .  A
O2589     Co2592   1.995       .  S
O2590      C2597   1.277       .  A
O2590     Co2595   2.000       .  S
O2591      C2598   1.300       .  A
O2591     Co2594   2.069       .  S
Co2592     O2596   1.890       .  S
Co2593     O2596   1.854       .  S
Co2594     O2596   2.017       .  S
C2597      C2823   1.461       .  S
C2598      C2770   1.440       .  S
C2599      C2833   1.486       .  S
C2600      C2763   1.487       .  S
O2601      C2609   1.273       .  A
O2601     Co2621   1.983       .  S
O2602      C2610   1.285       .  A
O2602     Co2622   2.023       .  S
O2603      C2611   1.309       .  A
O2604      C2612   1.279       .  A
O2605      C2611   1.287       .  A
O2605     Co2622   1.884       .  S
O2606      C2612   1.282       .  A
O2606     Co2621   1.979       .  S
O2607      C2610   1.272       .  A
O2607     Co2624   1.979       .  S
O2608      C2609   1.267       .  A
O2608     Co2623   1.975       .  S
C2609      C2890   1.481       .  S
C2610      C2803   1.484       .  S
C2611      C2813   1.465       .  S
C2612      C2880   1.472       .  S
O2613      C2626   1.274       .  A
O2613     Co2621   1.958       .  S
O2614      C2627   1.278       .  A
O2614     Co2622   2.009       .  S
O2615      C2628   1.304       .  A
O2615     Co2623   2.075       .  S
O2616      C2629   1.290       .  A
O2616     Co2624   2.000       .  S
O2617      C2629   1.309       .  A
O2617     Co2622   2.098       .  S
O2618      C2628   1.274       .  A
O2618     Co2621   1.973       .  S
O2619      C2626   1.295       .  A
O2620      C2627   1.281       .  A
Co2622     O2625   1.848       .  S
Co2624     O2625   1.923       .  S
C2626      C2693   1.473       .  S
C2627      C2723   1.498       .  S
C2628      C2733   1.516       .  S
C2629      C2683   1.493       .  S
O2630      C2638   1.305       .  A
O2630     Co2650   2.072       .  S
O2631      C2639   1.267       .  A
O2632      C2640   1.286       .  A
O2632     Co2652   1.895       .  S
O2633      C2641   1.275       .  A
O2633     Co2653   1.958       .  S
O2634      C2640   1.298       .  A
O2634     Co2651   2.075       .  S
O2635      C2641   1.309       .  A
O2636      C2639   1.267       .  A
O2636     Co2653   1.963       .  S
O2637      C2638   1.287       .  A
O2637     Co2652   2.024       .  S
C2638      C2870   1.505       .  S
C2639      C2780   1.453       .  S
C2640      C2863   1.487       .  S
C2641      C2790   1.489       .  S
O2642      C2655   1.283       .  A
O2643      C2656   1.272       .  A
O2643     Co2651   1.992       .  S
O2644      C2657   1.291       .  A
O2644     Co2652   2.051       .  S
O2645      C2658   1.273       .  A
O2645     Co2653   1.987       .  S
O2646      C2658   1.289       .  A
O2647      C2657   1.275       .  A
O2647     Co2650   2.017       .  S
O2648      C2655   1.261       .  A
O2648     Co2653   1.940       .  S
O2649      C2656   1.286       .  A
O2649     Co2652   2.055       .  S
Co2650     O2654   2.020       .  S
Co2651     O2654   2.071       .  S
Co2652     O2654   1.877       .  S
C2655      C2703   1.477       .  S
C2656      C2670   1.486       .  S
C2657      C2710   1.492       .  S
C2658      C2663   1.487       .  S
C2659      C2660   1.418       .  A
C2659      C2664   1.403       .  A
C2659      H2666   1.083       .  S
C2660      C2661   1.397       .  A
C2661      C2662   1.393       .  A
C2661      F2668   1.357       .  S
C2662      C2663   1.416       .  A
C2662      H2667   1.082       .  S
C2663      C2664   1.401       .  A
C2664      F2665   1.357       .  S
C2669      C2670   1.400       .  A
C2669      C2674   1.399       .  A
C2669      H2676   1.084       .  S
C2670      C2671   1.408       .  A
C2671      C2672   1.414       .  A
C2671      F2678   1.354       .  S
C2672      C2673   1.408       .  A
C2672      H2677   1.083       .  S
C2673      C2674   1.416       .  A
C2674      F2675   1.359       .  S
C2679      C2680   1.403       .  A
C2679      C2684   1.405       .  A
C2679      H2686   1.084       .  S
C2680      C2681   1.403       .  A
C2681      C2682   1.411       .  A
C2681      F2688   1.346       .  S
C2682      C2683   1.405       .  A
C2682      H2687   1.083       .  S
C2683      C2684   1.411       .  A
C2684      F2685   1.357       .  S
C2689      C2690   1.418       .  A
C2689      C2694   1.390       .  A
C2689      H2696   1.082       .  S
C2690      C2691   1.394       .  A
C2691      C2692   1.394       .  A
C2691      F2698   1.358       .  S
C2692      C2693   1.418       .  A
C2692      H2697   1.078       .  S
C2693      C2694   1.391       .  A
C2694      F2695   1.357       .  S
C2699      C2700   1.398       .  A
C2699      C2704   1.395       .  A
C2699      H2706   1.078       .  S
C2700      C2701   1.400       .  A
C2701      C2702   1.405       .  A
C2701      F2708   1.346       .  S
C2702      C2703   1.404       .  A
C2702      H2707   1.083       .  S
C2703      C2704   1.407       .  A
C2704      F2705   1.358       .  S
C2709      C2710   1.411       .  A
C2709      C2714   1.407       .  A
C2709      H2716   1.083       .  S
C2710      C2711   1.407       .  A
C2711      C2712   1.394       .  A
C2711      F2718   1.358       .  S
C2712      C2713   1.409       .  A
C2712      H2717   1.083       .  S
C2713      C2714   1.409       .  A
C2714      F2715   1.357       .  S
C2719      C2720   1.418       .  A
C2719      C2724   1.404       .  A
C2719      H2726   1.083       .  S
C2720      C2721   1.396       .  A
C2721      C2722   1.401       .  A
C2721      F2728   1.357       .  S
C2722      C2723   1.421       .  A
C2722      H2727   1.082       .  S
C2723      C2724   1.401       .  A
C2724      F2725   1.357       .  S
C2729      C2730   1.417       .  A
C2729      C2734   1.417       .  A
C2729      H2736   1.079       .  S
C2730      C2731   1.398       .  A
C2731      C2732   1.403       .  A
C2731      F2738   1.358       .  S
C2732      C2733   1.422       .  A
C2732      H2737   1.084       .  S
C2733      C2734   1.404       .  A
C2734      F2735   1.356       .  S
C2739      C2740   1.406       .  A
C2739      C2744   1.408       .  A
C2739      H2746   1.083       .  S
C2740      C2741   1.409       .  A
C2741      C2742   1.376       .  A
C2741      F2748   1.356       .  S
C2742      C2743   1.397       .  A
C2742      H2747   1.083       .  S
C2743      C2744   1.412       .  A
C2744      F2745   1.357   1_554  S
C2749      C2750   1.396       .  A
C2749      C2754   1.390       .  A
C2749      H2756   1.084       .  S
C2750      C2751   1.414       .  A
C2751      C2752   1.406       .  A
C2751      F2758   1.357       .  S
C2752      C2753   1.403       .  A
C2752      H2757   1.083       .  S
C2753      C2754   1.414       .  A
C2754      F2755   1.358       .  S
C2759      C2760   1.401       .  A
C2759      C2764   1.399       .  A
C2759      H2766   1.084       .  S
C2760      C2761   1.407       .  A
C2761      C2762   1.408       .  A
C2761      F2768   1.353       .  S
C2762      C2763   1.405       .  A
C2762      H2767   1.083       .  S
C2763      C2764   1.412       .  A
C2764      F2765   1.359       .  S
C2769      C2770   1.408       .  A
C2769      C2774   1.395       .  A
C2769      H2776   1.083       .  S
C2770      C2771   1.391       .  A
C2771      C2772   1.384       .  A
C2771      F2778   1.358       .  S
C2772      C2773   1.408       .  A
C2772      H2777   1.084       .  S
C2773      C2774   1.397       .  A
C2774      F2775   1.357       .  S
C2779      C2780   1.408       .  A
C2779      C2784   1.391       .  A
C2779      H2786   1.084       .  S
C2780      C2781   1.398       .  A
C2781      C2782   1.397       .  A
C2781      F2788   1.357       .  S
C2782      C2783   1.403       .  A
C2782      H2787   1.083       .  S
C2783      C2784   1.396       .  A
C2784      F2785   1.357       .  S
C2789      C2790   1.404       .  A
C2789      C2794   1.395       .  A
C2789      H2796   1.083       .  S
C2790      C2791   1.410       .  A
C2791      C2792   1.403       .  A
C2791      F2798   1.356       .  S
C2792      C2793   1.407       .  A
C2792      H2797   1.083       .  S
C2793      C2794   1.409       .  A
C2794      F2795   1.352       .  S
C2799      C2800   1.406       .  A
C2799      C2804   1.393       .  A
C2799      H2806   1.078       .  S
C2800      C2801   1.401       .  A
C2801      C2802   1.402       .  A
C2801      F2808   1.358       .  S
C2802      C2803   1.414       .  A
C2802      H2807   1.083       .  S
C2803      C2804   1.400       .  A
C2804      F2805   1.357       .  S
C2809      C2810   1.396       .  A
C2809      C2814   1.389       .  A
C2809      H2816   1.084       .  S
C2810      C2811   1.413       .  A
C2811      C2812   1.400       .  A
C2811      F2818   1.357       .  S
C2812      C2813   1.397       .  A
C2812      H2817   1.083       .  S
C2813      C2814   1.404       .  A
C2814      F2815   1.350       .  S
C2819      C2820   1.408       .  A
C2819      C2824   1.377       .  A
C2819      H2826   1.081       .  S
C2820      C2821   1.400       .  A
C2821      C2822   1.402       .  A
C2821      F2828   1.357       .  S
C2822      C2823   1.412       .  A
C2822      H2827   1.081       .  S
C2823      C2824   1.392       .  A
C2824      F2825   1.359       .  S
C2829      C2830   1.418       .  A
C2829      C2834   1.404       .  A
C2829      H2836   1.083       .  S
C2830      C2831   1.398       .  A
C2831      C2832   1.395       .  A
C2831      F2838   1.357       .  S
C2832      C2833   1.414       .  A
C2832      H2837   1.083       .  S
C2833      C2834   1.400       .  A
C2834      F2835   1.357       .  S
C2839      C2840   1.414       .  A
C2839      C2844   1.409       .  A
C2839      H2846   1.083       .  S
C2840      C2841   1.396       .  A
C2841      C2842   1.393       .  A
C2841      F2848   1.358       .  S
C2842      C2843   1.415       .  A
C2842      H2847   1.083       .  S
C2843      C2844   1.406       .  A
C2844      F2845   1.357       .  S
C2849      C2850   1.402       .  A
C2849      C2854   1.387       .  A
C2849      H2856   1.085       .  S
C2850      C2851   1.407       .  A
C2851      C2852   1.411       .  A
C2851      F2858   1.356       .  S
C2852      C2853   1.408       .  A
C2852      H2857   1.082       .  S
C2853      C2854   1.403       .  A
C2854      F2855   1.358       .  S
C2859      C2860   1.413       .  A
C2859      C2864   1.393       .  A
C2859      H2866   1.076       .  S
C2860      C2861   1.401       .  A
C2861      C2862   1.404       .  A
C2861      F2868   1.357       .  S
C2862      C2863   1.418       .  A
C2862      H2867   1.083       .  S
C2863      C2864   1.398       .  A
C2864      F2865   1.357       .  S
C2869      C2870   1.414       .  A
C2869      C2874   1.408       .  A
C2869      H2876   1.077       .  S
C2870      C2871   1.408       .  A
C2871      C2872   1.403       .  A
C2871      F2878   1.357       .  S
C2872      C2873   1.408       .  A
C2872      H2877   1.077       .  S
C2873      C2874   1.403       .  A
C2874      F2875   1.357       .  S
C2879      C2880   1.391       .  A
C2879      C2884   1.381       .  A
C2879      H2886   1.084       .  S
C2880      C2881   1.414       .  A
C2881      C2882   1.406       .  A
C2881      F2888   1.355       .  S
C2882      C2883   1.402       .  A
C2882      H2887   1.083       .  S
C2883      C2884   1.415       .  A
C2884      F2885   1.355       .  S
C2889      C2890   1.413       .  A
C2889      C2894   1.385       .  A
C2889      H2896   1.083       .  S
C2890      C2891   1.401       .  A
C2891      C2892   1.403       .  A
C2891      F2898   1.357       .  S
C2892      C2893   1.415       .  A
C2892      H2897   1.082       .  S
C2893      C2894   1.397       .  A
C2894      F2895   1.358       .  S
O2899      C2907   1.269       .  A
O2899     Co2919   1.949       .  S
O2900      C2908   1.280       .  A
O2900     Co2920   2.001       .  S
O2901      C2909   1.273       .  A
O2901     Co2921   2.004       .  S
O2902      C2910   1.264       .  A
O2902     Co2922   1.985       .  S
O2903      C2909   1.284       .  A
O2904      C2910   1.272       .  A
O2905      C2908   1.270       .  A
O2905     Co2922   1.986       .  S
O2906      C2907   1.272       .  A
O2906     Co2921   2.012       .  S
C2907      C3307   1.468       .  S
C2908      C3274   1.479       .  S
C2909      C3287   1.497       .  S
C2910      C3297   1.484       .  S
O2911      C2924   1.279       .  A
O2912      C2925   1.272       .  A
O2913      C2926   1.288       .  A
O2913     Co2921   2.015       .  S
O2914      C2927   1.280       .  A
O2914     Co2922   1.990       .  S
O2915      C2927   1.271       .  A
O2915     Co2920   1.982       .  S
O2916      C2926   1.280       .  A
O2916     Co2919   1.999       .  S
O2917      C2924   1.291       .  A
O2917     Co2922   2.009       .  S
O2918      C2925   1.283       .  A
O2918     Co2921   2.015       .  S
Co2919     O2923   1.931       .  S
Co2921     O2923   2.097       .  S
C2924      C3244   1.487       .  S
C2925      C3257   1.496       .  S
C2926      C3264   1.473       .  S
C2927      C3234   1.466       .  S
O2928      C2936   1.303       .  A
O2928     Co2948   2.076       .  S
O2929      C2937   1.298       .  A
O2929     Co2949   2.079       .  S
O2930      C2938   1.273       .  A
O2931      C2939   1.284       .  A
O2932      C2938   1.272       .  A
O2932     Co2949   1.998       .  S
O2933      C2939   1.301       .  A
O2933     Co2948   2.068       .  S
O2934      C2937   1.280       .  A
O2934     Co2951   1.882       .  S
O2935      C2936   1.275       .  A
O2935     Co2950   1.957       .  S
C2936      C3224   1.470       .  S
C2937      C3197   1.452       .  S
C2938      C3214   1.468       .  S
C2939      C3207   1.492       .  S
O2940      C2953   1.269       .  A
O2940     Co2948   1.989       .  S
O2941      C2954   1.280       .  A
O2941     Co2949   2.002       .  S
O2942      C2955   1.266       .  A
O2942     Co2950   1.973       .  S
O2943      C2956   1.285       .  A
O2943     Co2951   2.061       .  S
O2944      C2956   1.270       .  A
O2944     Co2949   1.987       .  S
O2945      C2955   1.277       .  A
O2945     Co2948   2.021       .  S
O2946      C2953   1.287       .  A
O2947      C2954   1.267       .  A
Co2948     O2952   2.006       .  S
Co2950     O2952   1.935       .  S
C2953      C3157   1.473       .  S
C2954      C3187   1.451       .  S
C2955      C3164   1.479       .  S
C2956      C3174   1.481       .  S
O2957      C2965   1.299       .  A
O2957     Co2977   2.032       .  S
O2958      C2966   1.250       .  A
O2958     Co2978   1.979       .  S
O2959      C2967   1.272       .  A
O2960      C2968   1.275       .  A
O2960     Co2980   1.986       .  S
O2961      C2967   1.269       .  A
O2961     Co2978   1.987       .  S
O2962      C2968   1.298       .  A
O2962     Co2977   2.034       .  S
O2963      C2966   1.253       .  A
O2964      C2965   1.278       .  A
O2964     Co2979   2.007       .  S
C2965      C3144   1.499       .  S
C2966      C3114   1.473       .  S
C2967      C3127   1.492       .  S
C2968      C3134   1.488       .  S
O2969      C2982   1.276       .  A
O2969     Co2977   1.999       .  S
O2970      C2983   1.261       .  A
O2970     Co2978   1.969       .  S
O2971      C2984   1.270       .  A
O2971     Co2979   2.008       .  S
O2972      C2985   1.286       .  A
O2973      C2985   1.301       .  A
O2973     Co2978   2.091       .  S
O2974      C2984   1.264       .  A
O2974     Co2977   1.987       .  S
O2975      C2982   1.283       .  A
O2975     Co2980   1.991       .  S
O2976      C2983   1.274       .  A
Co2977     O2981   2.054       .  S
Co2979     O2981   2.062       .  S
Co2980     O2981   1.978       .  S
C2982      C3167   1.481       .  S
C2983      C3254   1.470       .  S
C2984      C3267   1.476       .  S
C2985      C3154   1.474       .  S
O2986      C2994   1.272       .  A
O2986     Co3006   1.957       .  S
O2987      C2995   1.303       .  A
O2988      C2996   1.271       .  A
O2988     Co3008   1.989       .  S
O2989      C2997   1.296       .  A
O2989     Co3009   2.031       .  S
O2990      C2996   1.284       .  A
O2990     Co3007   2.051       .  S
O2991      C2997   1.285       .  A
O2992      C2995   1.291       .  A
O2992     Co3009   1.993       .  S
O2993      C2994   1.292       .  A
O2993     Co3008   2.022       .  S
C2994      C3104   1.477       .  S
C2995      C3074   1.490       .  S
C2996      C3094   1.480       .  S
C2997      C3087   1.498       .  S
O2998      C3011   1.276       .  A
O2999      C3012   1.289       .  A
O2999     Co3007   1.882       .  S
O3000      C3013   1.265       .  A
O3000     Co3008   1.981       .  S
O3001      C3014   1.275       .  A
O3001     Co3009   1.984       .  S
O3002      C3014   1.288       .  A
O3003      C3013   1.275       .  A
O3003     Co3006   1.998       .  S
O3004      C3011   1.277       .  A
O3004     Co3009   1.995       .  S
O3005      C3012   1.300       .  A
O3005     Co3008   2.070       .  S
Co3006     O3010   1.886       .  S
Co3007     O3010   1.853       .  S
Co3008     O3010   2.016       .  S
C3011      C3237   1.458       .  S
C3012      C3184   1.442       .  S
C3013      C3247   1.487       .  S
C3014      C3177   1.486       .  S
O3015      C3023   1.275       .  A
O3015     Co3035   1.966       .  S
O3016      C3024   1.278       .  A
O3016     Co3036   1.980       .  S
O3017      C3025   1.285       .  A
O3018      C3026   1.280       .  A
O3019      C3025   1.270       .  A
O3019     Co3036   1.947       .  S
O3020      C3026   1.283       .  A
O3020     Co3035   1.984       .  S
O3021      C3024   1.279       .  A
O3021     Co3038   2.015       .  S
O3022      C3023   1.274       .  A
O3022     Co3037   1.988       .  S
C3023      C3304   1.470       .  S
C3024      C3217   1.481       .  S
C3025      C3227   1.467       .  S
C3026      C3294   1.475       .  S
O3027      C3040   1.275       .  A
O3027     Co3035   1.967       .  S
O3028      C3041   1.274       .  A
O3028     Co3036   1.972       .  S
O3029      C3042   1.303       .  A
O3029     Co3037   2.070       .  S
O3030      C3043   1.294       .  A
O3030     Co3038   2.033       .  S
O3031      C3043   1.278       .  A
O3031     Co3036   1.985       .  S
O3032      C3042   1.275       .  A
O3032     Co3035   1.981       .  S
O3033      C3040   1.294       .  A
O3034      C3041   1.295       .  A
Co3036     O3039   1.882       .  S
Co3038     O3039   1.959       .  S
C3040      C3107   1.476       .  S
C3041      C3137   1.493       .  S
C3042      C3147   1.518       .  S
C3043      C3097   1.483       .  S
O3044      C3052   1.304       .  A
O3044     Co3064   2.068       .  S
O3045      C3053   1.268       .  A
O3046      C3054   1.286       .  A
O3046     Co3066   1.900       .  S
O3047      C3055   1.276       .  A
O3047     Co3067   1.959       .  S
O3048      C3054   1.297       .  A
O3048     Co3065   2.071       .  S
O3049      C3055   1.310       .  A
O3050      C3053   1.267       .  A
O3050     Co3067   1.963       .  S
O3051      C3052   1.288       .  A
O3051     Co3066   2.026       .  S
C3052      C3284   1.506       .  S
C3053      C3194   1.452       .  S
C3054      C3277   1.486       .  S
C3055      C3204   1.491       .  S
O3056      C3069   1.283       .  A
O3057      C3070   1.272       .  A
O3057     Co3065   1.992       .  S
O3058      C3071   1.291       .  A
O3058     Co3066   2.049       .  S
O3059      C3072   1.273       .  A
O3059     Co3067   1.990       .  S
O3060      C3072   1.289       .  A
O3061      C3071   1.275       .  A
O3061     Co3064   2.019       .  S
O3062      C3069   1.261       .  A
O3062     Co3067   1.943       .  S
O3063      C3070   1.287       .  A
O3063     Co3066   2.057       .  S
Co3064     O3068   2.019       .  S
Co3065     O3068   2.070       .  S
Co3066     O3068   1.880       .  S
C3069      C3117   1.477       .  S
C3070      C3084   1.486       .  S
C3071      C3124   1.491       .  S
C3072      C3077   1.488       .  S
C3073      C3074   1.418       .  A
C3073      C3078   1.403       .  A
C3073      H3080   1.083       .  S
C3074      C3075   1.398       .  A
C3075      C3076   1.395       .  A
C3075      F3082   1.357       .  S
C3076      C3077   1.416       .  A
C3076      H3081   1.082       .  S
C3077      C3078   1.401       .  A
C3078      F3079   1.357       .  S
C3083      C3084   1.400       .  A
C3083      C3088   1.399       .  A
C3083      H3090   1.084       .  S
C3084      C3085   1.408       .  A
C3085      C3086   1.415       .  A
C3085      F3092   1.355       .  S
C3086      C3087   1.409       .  A
C3086      H3091   1.083       .  S
C3087      C3088   1.415       .  A
C3088      F3089   1.359       .  S
C3093      C3094   1.398       .  A
C3093      C3098   1.396       .  A
C3093      H3100   1.084       .  S
C3094      C3095   1.403       .  A
C3095      C3096   1.410       .  A
C3095      F3102   1.346       .  S
C3096      C3097   1.404       .  A
C3096      H3101   1.083       .  S
C3097      C3098   1.412       .  A
C3098      F3099   1.358       .  S
C3103      C3104   1.418       .  A
C3103      C3108   1.392       .  A
C3103      H3110   1.082       .  S
C3104      C3105   1.393       .  A
C3105      C3106   1.394       .  A
C3105      F3112   1.358       .  S
C3106      C3107   1.417       .  A
C3106      H3111   1.077       .  S
C3107      C3108   1.392       .  A
C3108      F3109   1.357       .  S
C3113      C3114   1.400       .  A
C3113      C3118   1.395       .  A
C3113      H3120   1.079       .  S
C3114      C3115   1.400       .  A
C3115      C3116   1.406       .  A
C3115      F3122   1.346       .  S
C3116      C3117   1.405       .  A
C3116      H3121   1.083       .  S
C3117      C3118   1.406       .  A
C3118      F3119   1.358       .  S
C3123      C3124   1.411       .  A
C3123      C3128   1.407       .  A
C3123      H3130   1.083       .  S
C3124      C3125   1.406       .  A
C3125      C3126   1.394       .  A
C3125      F3132   1.357       .  S
C3126      C3127   1.409       .  A
C3126      H3131   1.083       .  S
C3127      C3128   1.409       .  A
C3128      F3129   1.357       .  S
C3133      C3134   1.419       .  A
C3133      C3138   1.404       .  A
C3133      H3140   1.083       .  S
C3134      C3135   1.396       .  A
C3135      C3136   1.399       .  A
C3135      F3142   1.357       .  S
C3136      C3137   1.419       .  A
C3136      H3141   1.083       .  S
C3137      C3138   1.400       .  A
C3138      F3139   1.357       .  S
C3143      C3144   1.418       .  A
C3143      C3148   1.416       .  A
C3143      H3150   1.079       .  S
C3144      C3145   1.398       .  A
C3145      C3146   1.403       .  A
C3145      F3152   1.358       .  S
C3146      C3147   1.423       .  A
C3146      H3151   1.083       .  S
C3147      C3148   1.404       .  A
C3148      F3149   1.356       .  S
C3153      C3154   1.405       .  A
C3153      C3158   1.406       .  A
C3153      H3160   1.083       .  S
C3154      C3155   1.411       .  A
C3155      C3156   1.376       .  A
C3155      F3162   1.357       .  S
C3156      C3157   1.396       .  A
C3156      H3161   1.083       .  S
C3157      C3158   1.413       .  A
C3158      F3159   1.357       .  S
C3163      C3164   1.397       .  A
C3163      C3168   1.389       .  A
C3163      H3170   1.084       .  S
C3164      C3165   1.413       .  A
C3165      C3166   1.406       .  A
C3165      F3172   1.357       .  S
C3166      C3167   1.403       .  A
C3166      H3171   1.083       .  S
C3167      C3168   1.413       .  A
C3168      F3169   1.358       .  S
C3173      C3174   1.401       .  A
C3173      C3178   1.399       .  A
C3173      H3180   1.084       .  S
C3174      C3175   1.408       .  A
C3175      C3176   1.408       .  A
C3175      F3182   1.353       .  S
C3176      C3177   1.405       .  A
C3176      H3181   1.083       .  S
C3177      C3178   1.411       .  A
C3178      F3179   1.358       .  S
C3183      C3184   1.408       .  A
C3183      C3188   1.395       .  A
C3183      H3190   1.083       .  S
C3184      C3185   1.392       .  A
C3185      C3186   1.386       .  A
C3185      F3192   1.358       .  S
C3186      C3187   1.408       .  A
C3186      H3191   1.084       .  S
C3187      C3188   1.397       .  A
C3188      F3189   1.357       .  S
C3193      C3194   1.406       .  A
C3193      C3198   1.390       .  A
C3193      H3200   1.084       .  S
C3194      C3195   1.400       .  A
C3195      C3196   1.398       .  A
C3195      F3202   1.357       .  S
C3196      C3197   1.404       .  A
C3196      H3201   1.083       .  S
C3197      C3198   1.396       .  A
C3198      F3199   1.356       .  S
C3203      C3204   1.405       .  A
C3203      C3208   1.395       .  A
C3203      H3210   1.083       .  S
C3204      C3205   1.411       .  A
C3205      C3206   1.404       .  A
C3205      F3212   1.356       .  S
C3206      C3207   1.407       .  A
C3206      H3211   1.083       .  S
C3207      C3208   1.410       .  A
C3208      F3209   1.352       .  S
C3213      C3214   1.403       .  A
C3213      C3218   1.390       .  A
C3213      H3220   1.078       .  S
C3214      C3215   1.402       .  A
C3215      C3216   1.403       .  A
C3215      F3222   1.358       .  S
C3216      C3217   1.413       .  A
C3216      H3221   1.083       .  S
C3217      C3218   1.401       .  A
C3218      F3219   1.357       .  S
C3223      C3224   1.398       .  A
C3223      C3228   1.392       .  A
C3223      H3230   1.083       .  S
C3224      C3225   1.411       .  A
C3225      C3226   1.402       .  A
C3225      F3232   1.358       .  S
C3226      C3227   1.401       .  A
C3226      H3231   1.083       .  S
C3227      C3228   1.399       .  A
C3228      F3229   1.347       .  S
C3233      C3234   1.408       .  A
C3233      C3238   1.378       .  A
C3233      H3240   1.081       .  S
C3234      C3235   1.400       .  A
C3235      C3236   1.399       .  A
C3235      F3242   1.357       .  S
C3236      C3237   1.411       .  A
C3236      H3241   1.082       .  S
C3237      C3238   1.392       .  A
C3238      F3239   1.358       .  S
C3243      C3244   1.417       .  A
C3243      C3248   1.403       .  A
C3243      H3250   1.083       .  S
C3244      C3245   1.398       .  A
C3245      C3246   1.397       .  A
C3245      F3252   1.357       .  S
C3246      C3247   1.416       .  A
C3246      H3251   1.083       .  S
C3247      C3248   1.400       .  A
C3248      F3249   1.357       .  S
C3253      C3254   1.413       .  A
C3253      C3258   1.408       .  A
C3253      H3260   1.081       .  S
C3254      C3255   1.395       .  A
C3255      C3256   1.393       .  A
C3255      F3262   1.358       .  S
C3256      C3257   1.416       .  A
C3256      H3261   1.083       .  S
C3257      C3258   1.405       .  A
C3258      F3259   1.357       .  S
C3263      C3264   1.402       .  A
C3263      C3268   1.387       .  A
C3263      H3270   1.085       .  S
C3264      C3265   1.408       .  A
C3265      C3266   1.411       .  A
C3265      F3272   1.356       .  S
C3266      C3267   1.408       .  A
C3266      H3271   1.082       .  S
C3267      C3268   1.402       .  A
C3268      F3269   1.358       .  S
C3273      C3274   1.408       .  A
C3273      C3278   1.396       .  A
C3273      H3280   1.073       .  S
C3274      C3275   1.400       .  A
C3275      C3276   1.402       .  A
C3275      F3282   1.357       .  S
C3276      C3277   1.416       .  A
C3276      H3281   1.083       .  S
C3277      C3278   1.401       .  A
C3278      F3279   1.357       .  S
C3283      C3284   1.414       .  A
C3283      C3288   1.409       .  A
C3283      H3290   1.075       .  S
C3284      C3285   1.407       .  A
C3285      C3286   1.403       .  A
C3285      F3292   1.357       .  S
C3286      C3287   1.410       .  A
C3286      H3291   1.078       .  S
C3287      C3288   1.403       .  A
C3288      F3289   1.357       .  S
C3293      C3294   1.392       .  A
C3293      C3298   1.384       .  A
C3293      H3300   1.084       .  S
C3294      C3295   1.415       .  A
C3295      C3296   1.406       .  A
C3295      F3302   1.354       .  S
C3296      C3297   1.402       .  A
C3296      H3301   1.083       .  S
C3297      C3298   1.418       .  A
C3298      F3299   1.358       .  S
C3303      C3304   1.410       .  A
C3303      C3308   1.382       .  A
C3303      H3310   1.084       .  S
C3304      C3305   1.400       .  A
C3305      C3306   1.398       .  A
C3305      F3312   1.358       .  S
C3306      C3307   1.413       .  A
C3306      H3311   1.081       .  S
C3307      C3308   1.397       .  A
C3308      F3309   1.358       .  S
