geometry optimzed in LAMMPS
_audit_creation_date              2020-11-30 
_audit_creation_method            'lammps2cif' 
_symmetry_space_group_name_H-M    'P1' 
_symmetry_Int_Tables_number       1 
_symmetry_cell_setting            triclinic 
loop_ 
_symmetry_equiv_pos_as_xyz 
  x,y,z 
_cell_length_a                    46.17171955 
_cell_length_b                    46.26336067237601 
_cell_length_c                    46.14868288781268 
_cell_angle_alpha                 90.17025643149157 
_cell_angle_beta                  89.83947180193528 
_cell_angle_gamma                 89.85691943650679 
loop_ 
_atom_site_label 
_atom_site_type_symbol 
_atom_site_fract_x 
_atom_site_fract_y 
_atom_site_fract_z 
_atom_site_charge 
Zr1        Zr  0.42814132  0.16395552  0.22990015     2.17500
O2          O  0.42939682  0.21596510  0.23854633    -0.51800
O3          O  0.38518502  0.15589967  0.25905016    -0.75000
O4          O  0.39162092  0.18879666  0.20193841    -0.81800
O5          O  0.48400295  0.15185534  0.28807065    -0.83600
O6          O  0.38620721  0.16708073  0.15800070    -0.79200
O7          O  0.44827150  0.18302678  0.27476287    -0.90800
O8          O  0.37538940  0.10789643  0.25843944    -0.76800
O9          O  0.40184078  0.12561424  0.20762013    -0.86300
O10         O  0.44041907  0.12149349  0.25609134    -0.86000
O11         O  0.44360864  0.16342341  0.18007077    -0.72700
O12         O  0.47962609  0.15965224  0.22493705    -0.84900
Zr13       Zr  0.48240182  0.07630062  0.17962039     2.26400
Zr14       Zr  0.41783242  0.12389407  0.15817631     2.06300
Zr15       Zr  0.49156609  0.11630789  0.25024924     2.10000
Zr16       Zr  0.41470485  0.08326593  0.23368773     1.78800
O17         O  0.53851910  0.13908201  0.25707051    -0.93700
O18         O  0.37090483  0.06154544  0.21403317    -0.41500
O19         O  0.46607809  0.07674901  0.22905103    -0.78100
O20         O  0.43047031  0.08065661  0.18434413    -0.96800
O21         O  0.46912671  0.11852958  0.15333275    -0.90100
O22         O  0.50844322  0.11488875  0.20127856    -0.92900
C23         C  0.36931505  0.13408132  0.26539665     1.00800
C24         C  0.46811747  0.17427043  0.29211013     1.13800
C25         C  0.38016766  0.18704419  0.17670873     1.04500
O26         O  0.36884383  0.10807159  0.14704236    -0.95100
O27         O  0.42075657  0.08267231  0.12424906    -0.90800
O28         O  0.46135641  0.05728023  0.13587417    -0.84000
C29         C  0.43893144  0.06175851  0.12025778     1.11200
O30         O  0.50189160  0.20878765  0.18258110    -0.97100
Zr31       Zr  0.49485660  0.15710830  0.17529834     1.88900
O32         O  0.51810362  0.08597377  0.14205544    -0.73700
O33         O  0.42532721  0.14537685  0.11066770    -0.53000
O34         O  0.48757593  0.18818997  0.13342805    -0.97700
O35         O  0.54521880  0.16547071  0.18837199    -0.54900
O36         O  0.52121305  0.13448683  0.13573633    -0.74200
C37         C  0.52712179  0.10836909  0.12835010     0.98100
O38         O  0.48553223  0.02367096  0.17689903    -0.63000
O39         O  0.49436377  0.09195559  0.29691128    -0.57800
O40         O  0.52186622  0.05241155  0.20585098    -0.94500
O41         O  0.52348829  0.07482190  0.24970698    -0.93000
O42         O  0.41636893  0.06722039  0.28390598    -0.93300
O43         O  0.41491421  0.03066077  0.23619387    -0.92100
C44         C  0.53187506  0.05530952  0.23171273     1.17000
H45         H  0.43505540  0.12319879  0.27627406     0.32900
H46         H  0.42109450  0.06398596  0.17597936     0.43800
H47         H  0.52908546  0.11156194  0.20023595     0.37300
H48         H  0.43871175  0.18146214  0.17079951     0.33800
H49         H  0.36010531  0.05455345  0.23119870     0.25500
H50         H  0.44186093  0.13456772  0.10220147     0.31500
H51         H  0.47542646  0.17668524  0.12007624     0.37400
H52         H  0.43647274  0.06029865  0.28668822     0.31900
H53         H  0.50829056  0.10346092  0.30841524     0.30700
H54         H  0.53421965  0.16002165  0.25843852     0.32400
H55         H  0.54439842  0.17776276  0.20595259     0.31400
H56         H  0.42721880  0.02444276  0.21969977     0.35400
H57         H  0.46535747  0.01685947  0.17451964     0.28100
H58         H  0.40960473  0.22125636  0.24501703     0.32300
H59         H  0.48739005  0.21425705  0.19747459     0.35200
H60         H  0.47536557  0.09555782  0.30626042     0.27800
H61         H  0.49518457  0.01927683  0.15819570     0.40700
H62         H  0.35689701  0.11513268  0.16346067     0.30700
H63         H  0.35932748  0.07810250  0.20693845     0.38400
H64         H  0.55278552  0.17832269  0.17300706     0.30200
H65         H  0.40838813  0.13908717  0.09917454     0.30300
H66         H  0.43155153  0.22487293  0.21917940     0.30500
Zr67       Zr  0.07648391  0.18172292  0.47690866     2.17500
O68         O  0.02418594  0.18299220  0.48443179    -0.51800
O69         O  0.08491073  0.14012919  0.50874444    -0.75000
O70         O  0.05255734  0.14196290  0.45321654    -0.81800
O71         O  0.07916905  0.25174735  0.51875095    -0.83600
O72         O  0.07776530  0.13017240  0.41237272    -0.79200
O73         O  0.05566296  0.20869554  0.51799775    -0.90800
O74         O  0.13321312  0.13145377  0.51082351    -0.76800
O75         O  0.11675763  0.15360346  0.46097743    -0.86300
O76         O  0.11687318  0.20004109  0.50274237    -0.86000
O77         O  0.07968375  0.18918171  0.42503933    -0.72700
O78         O  0.07979980  0.23139815  0.46212598    -0.84900
Zr79       Zr  0.16611854  0.22931814  0.42286272     2.26400
Zr80       Zr  0.12106255  0.16108495  0.40984362     2.06300
Zr81       Zr  0.12084846  0.24931515  0.48760565     2.10000
Zr82       Zr  0.15709125  0.17182554  0.48694212     1.78800
O83         O  0.09998515  0.29751656  0.49233691    -0.93700
O84         O  0.18615598  0.12985558  0.47327832    -0.41500
O85         O  0.16235618  0.22185522  0.47402586    -0.78100
O86         O  0.16247578  0.17899880  0.43579791    -0.96800
O87         O  0.12590929  0.21066818  0.39640702    -0.90100
O88         O  0.12524500  0.25718985  0.43683588    -0.92900
C89         C  0.10683375  0.12473086  0.51654181     1.00800
C90         C  0.05933693  0.23460720  0.52762289     1.13800
C91         C  0.05621957  0.12723061  0.42996330     1.04500
O92         O  0.14102797  0.11238007  0.41157711    -0.95100
O93         O  0.16301056  0.16073927  0.37653317    -0.90800
O94         O  0.18857326  0.20208077  0.38434291    -0.84000
C95         C  0.18437102  0.17796965  0.37129709     1.11200
O96         O  0.03330661  0.24769918  0.41558687    -0.97100
Zr97       Zr  0.08518537  0.23865351  0.41084317     1.88900
O98         O  0.15871990  0.25718448  0.37907632    -0.73700
O99         O  0.10192545  0.15419892  0.36116495    -0.53000
O100        O  0.05884748  0.22088665  0.36868203    -0.97700
O101        O  0.07300409  0.28996158  0.41402819    -0.54900
O102        O  0.11057646  0.25980961  0.36951786    -0.74200
C103        C  0.13726462  0.26424702  0.36287823     0.98100
O104        O  0.21850080  0.23216903  0.42880173    -0.63000
O105        O  0.14529040  0.25212702  0.53418953    -0.57800
O106        O  0.18572727  0.27517479  0.44106792    -0.94500
O107        O  0.15667277  0.28629057  0.47938041    -0.93000
O108        O  0.16574656  0.17759267  0.53869947    -0.93300
O109        O  0.20808783  0.18054677  0.49717306    -0.92100
C110        C  0.17769174  0.29179779  0.46205418     1.17000
H111        H  0.11400334  0.19854788  0.52342704     0.32900
H112        H  0.17977143  0.16882842  0.42978291     0.43800
H113        H  0.12797979  0.27735349  0.43231587     0.37300
H114        H  0.06226328  0.18249216  0.41568439     0.33800
H115        H  0.18866232  0.11885714  0.49147678     0.25500
H116        H  0.10266935  0.13304448  0.35789631     0.31500
H117        H  0.07342665  0.21967762  0.35295189     0.37400
H118        H  0.17940120  0.16186882  0.54376154     0.31900
H119        H  0.16615077  0.25316191  0.52926900     0.30700
H120        H  0.10718764  0.30494281  0.51111872     0.32400
H121        H  0.09010072  0.30046375  0.40654389     0.31400
H122        H  0.21771405  0.18019516  0.47798563     0.35400
H123        H  0.22418815  0.21297783  0.43634430     0.28100
H124        H  0.01891999  0.16367960  0.49197565     0.32300
H125        H  0.02773385  0.25884376  0.39817064     0.35200
H126        H  0.14046832  0.27161200  0.54172960     0.27800
H127        H  0.22680322  0.23289946  0.40902151     0.40700
H128        H  0.12806957  0.10069354  0.39916511     0.30700
H129        H  0.17299974  0.11779103  0.46146012     0.38400
H130        H  0.07263611  0.29429528  0.43504992     0.30200
H131        H  0.08101540  0.15876668  0.36275972     0.30300
H132        H  0.01568779  0.18381810  0.46477161     0.30500
Zr133      Zr  0.23262750  0.42782148  0.16615032     2.17500
O134        O  0.23761843  0.42793747  0.21875866    -0.51800
O135        O  0.26438797  0.38689787  0.15673568    -0.75000
O136        O  0.20866597  0.38661050  0.18735279    -0.81800
O137        O  0.28414900  0.49041049  0.15923757    -0.83600
O138        O  0.16902295  0.37577846  0.16023213    -0.79200
O139        O  0.27604324  0.45034029  0.18656246    -0.90800
O140        O  0.26533804  0.37817069  0.10834452    -0.76800
O141        O  0.21631876  0.40136538  0.12490552    -0.86300
O142        O  0.25908303  0.44600527  0.12593886    -0.86000
O143        O  0.18116429  0.43660561  0.16313089    -0.72700
O144        O  0.22057278  0.47827661  0.16454919    -0.84900
Zr145      Zr  0.17983748  0.48059576  0.07855601     2.26400
Zr146      Zr  0.16559336  0.41081328  0.12061345     2.06300
Zr147      Zr  0.24639833  0.49603387  0.12358201     2.10000
Zr148      Zr  0.24265488  0.41988964  0.08495593     1.78800
O149        O  0.24909600  0.54059903  0.15165798    -0.93700
O150        O  0.22741681  0.37992433  0.05417239    -0.41500
O151        O  0.23087233  0.47047051  0.08143408    -0.78100
O152        O  0.19193520  0.42974861  0.07979536    -0.96800
O153        O  0.15344101  0.46111668  0.11838001    -0.90100
O154        O  0.19575875  0.50641931  0.12016052    -0.92900
C155        C  0.27132757  0.37134047  0.13466370     1.00800
C156        C  0.29094124  0.47271364  0.17946027     1.13800
C157        C  0.18613692  0.37145650  0.18178663     1.04500
O158        O  0.16248325  0.36263897  0.09937877    -0.95100
O159        O  0.13314951  0.41136266  0.07839151    -0.90800
O160        O  0.14075821  0.45419216  0.05550306    -0.84000
C161        C  0.12794071  0.42971969  0.05805448     1.11200
O162        O  0.17640819  0.48820829  0.21225918    -0.97100
Zr163      Zr  0.16954174  0.48697759  0.15990174     1.88900
O164        O  0.13731505  0.51074662  0.08816423    -0.73700
O165        O  0.11821927  0.40705672  0.14353084    -0.53000
O166        O  0.12425996  0.47183306  0.18238142    -0.97700
O167        O  0.17479943  0.53596525  0.17876391    -0.54900
O168        O  0.13091618  0.51432334  0.13679919    -0.74200
C169        C  0.12315111  0.51946901  0.11060286     0.98100
O170        O  0.17965076  0.48891253  0.02643203    -0.63000
O171        O  0.29192535  0.50429749  0.09807183    -0.57800
O172        O  0.20275320  0.52427895  0.05858878    -0.94500
O173        O  0.24173667  0.53302429  0.08724296    -0.93000
O174        O  0.29421749  0.42655943  0.07571488    -0.93300
O175        O  0.25339487  0.42607856  0.03367699    -0.92100
C176        C  0.22501388  0.53931468  0.06603280     1.17000
H177        H  0.27966169  0.44316749  0.12836849     0.32900
H178        H  0.18579337  0.42053468  0.06206028     0.43800
H179        H  0.19215576  0.52690149  0.11828046     0.37300
H180        H  0.17150277  0.42918185  0.18012621     0.33800
H181        H  0.24470340  0.36731265  0.05252180     0.25500
H182        H  0.10508351  0.41835593  0.13096249     0.31500
H183        H  0.11279286  0.46346939  0.16633757     0.37400
H184        H  0.30188020  0.40683766  0.07224067     0.31900
H185        H  0.30590980  0.49061959  0.10678090     0.30700
H186        H  0.26515223  0.55158068  0.14269116     0.32400
H187        H  0.17087158  0.54890005  0.16217995     0.31400
H188        H  0.23659183  0.43697317  0.02604037     0.35400
H189        H  0.18110576  0.46946453  0.01752314     0.28100
H190        H  0.24460140  0.40836017  0.22391299     0.32300
H191        H  0.15786930  0.49522834  0.22052462     0.35200
H192        H  0.28862839  0.49652414  0.07834168     0.27800
H193        H  0.15981608  0.49568669  0.02188038     0.40700
H194        H  0.14701431  0.35279981  0.11047598     0.30700
H195        H  0.21370145  0.36882069  0.06630532     0.38400
H196        H  0.19580849  0.53809365  0.18240339     0.30200
H197        H  0.11238090  0.38669645  0.14048139     0.30300
H198        H  0.21756732  0.42893884  0.22637224     0.30500
Zr199      Zr  0.97842436  0.42631979  0.81791400     2.17500
O200        O  0.97809245  0.47905180  0.81956432    -0.51800
O201        O  0.01285194  0.41721952  0.85706928    -0.75000
O202        O  0.95456710  0.44327823  0.86134557    -0.81800
O203        O  0.01664926  0.43467518  0.74726879    -0.83600
O204        O  0.91844479  0.41261264  0.87451998    -0.79200
O205        O  0.01673454  0.45273367  0.79314926    -0.90800
O206        O  0.02018283  0.36877232  0.85945491    -0.76800
O207        O  0.96956885  0.38190403  0.84211007    -0.86300
O208        O  0.00653893  0.39127727  0.79222675    -0.86000
O209        O  0.92698300  0.41880458  0.81423976    -0.72700
O210        O  0.96020516  0.42743832  0.76918048    -0.84900
Zr211      Zr  0.92958765  0.33768235  0.76406341     2.26400
Zr212      Zr  0.91870095  0.37360353  0.83827916     2.06300
Zr213      Zr  0.98750862  0.39156808  0.74393845     2.10000
Zr214      Zr  0.99770948  0.34705623  0.81668317     1.78800
O215        O  0.97587563  0.41941215  0.70079377    -0.93700
O216        O  0.99420165  0.30810859  0.85197886    -0.41500
O217        O  0.98074520  0.34620985  0.76754356    -0.78100
O218        O  0.94684475  0.33747548  0.81332958    -0.96800
O219        O  0.90123771  0.37265873  0.78950118    -0.90100
O220        O  0.93692514  0.38223890  0.73964504    -0.92900
C221        C  0.02332732  0.39458068  0.86944155     1.00800
C222        C  0.02520356  0.45267797  0.76659818     1.13800
C223        C  0.93366529  0.43567093  0.87799937     1.04500
O224        O  0.92802029  0.34861516  0.88369127    -0.95100
O225        O  0.88938851  0.32975401  0.83600161    -0.90800
O226        O  0.89636811  0.30885566  0.79184825    -0.84000
C227        C  0.88476475  0.30979205  0.81709240     1.11200
O228        O  0.90339742  0.46961392  0.76561591    -0.97100
Zr229      Zr  0.90945037  0.41731460  0.76570770     1.88900
O230        O  0.88459221  0.34495426  0.73689171    -0.73700
O231        O  0.86939754  0.38675208  0.85195685    -0.53000
O232        O  0.86624883  0.43287304  0.79191843    -0.97700
O233        O  0.90754538  0.43963227  0.71795410    -0.54900
O234        O  0.87074172  0.39183138  0.74154594    -0.74200
C235        C  0.86649981  0.36583503  0.73292979     0.98100
O236        O  0.93117309  0.28514685  0.75878665    -0.63000
O237        O  0.03489299  0.38007667  0.72347870    -0.57800
O238        O  0.95205322  0.32122072  0.71876430    -0.94500
O239        O  0.98614654  0.35448056  0.70693249    -0.93000
O240        O  0.04915816  0.34530600  0.80496772    -0.93300
O241        O  0.01145603  0.29850653  0.80135342    -0.92100
C242        C  0.97207650  0.33109151  0.70213323     1.17000
H243        H  0.02689518  0.39602325  0.79251593     0.32900
H244        H  0.94353247  0.31874197  0.82187042     0.43800
H245        H  0.93108969  0.38092717  0.71959854     0.37300
H246        H  0.91645041  0.43427151  0.82361592     0.33800
H247        H  0.01238575  0.30920451  0.86325029     0.25500
H248        H  0.85702323  0.37845697  0.83656248     0.31500
H249        H  0.85521298  0.41489514  0.79541174     0.37400
H250        H  0.05844338  0.33761432  0.82266896     0.31900
H251        H  0.03617322  0.39187125  0.70564598     0.30700
H252        H  0.98695831  0.41003957  0.68494025     0.32400
H253        H  0.90536903  0.42347039  0.70403405     0.31400
H254        H  0.99339409  0.29001865  0.79358406     0.35400
H255        H  0.92222657  0.28066873  0.73982333     0.28100
H256        H  0.98358547  0.48449387  0.83956934     0.32300
H257        H  0.91628604  0.47656866  0.78124483     0.35200
H258        H  0.04910846  0.38887371  0.73686063     0.27800
H259        H  0.95191111  0.28008320  0.75651665     0.40700
H260        H  0.94640093  0.35691610  0.89088833     0.30700
H261        H  0.97891073  0.31438714  0.86570456     0.38400
H262        H  0.92736159  0.44700158  0.71453131     0.30200
H263        H  0.86518653  0.37490142  0.86929159     0.30300
H264        H  0.95742239  0.48453634  0.81789221     0.30500
Zr265      Zr  0.76782017  0.92544816  0.33536234     2.17500
O266        O  0.75958806  0.92550864  0.28315876    -0.51800
O267        O  0.73986191  0.88182624  0.34196185    -0.75000
O268        O  0.79705151  0.89032469  0.30956380    -0.81800
O269        O  0.70956679  0.98213402  0.34803415    -0.83600
O270        O  0.84052227  0.88403286  0.33172495    -0.79200
O271        O  0.72253550  0.94616923  0.31685835    -0.90800
O272        O  0.73810451  0.87137118  0.38986087    -0.76800
O273        O  0.78934103  0.89790792  0.37338755    -0.86300
O274        O  0.74080253  0.93676232  0.37785414    -0.86000
O275        O  0.81771655  0.94047296  0.33733053    -0.72700
O276        O  0.77280814  0.97676626  0.34081435    -0.84900
Zr277      Zr  0.81655477  0.97715473  0.42520259     2.26400
Zr278      Zr  0.83875751  0.91334895  0.37650928     2.06300
Zr279      Zr  0.74672189  0.98772012  0.38431212     2.10000
Zr280      Zr  0.76253321  0.90995757  0.41580318     1.78800
O281        O  0.73751468  0.03509932  0.36329126    -0.93700
O282        O  0.77917053  0.86461682  0.43682735    -0.41500
O283        O  0.76717117  0.96111184  0.42350141    -0.78100
O284        O  0.81180972  0.92540708  0.41959006    -0.96800
O285        O  0.84357134  0.96439710  0.38295303    -0.90100
O286        O  0.79567931  0.00412144  0.38687989    -0.92900
C287        C  0.73253746  0.86566054  0.36324980     1.00800
C288        C  0.70525684  0.96629314  0.32561494     1.13800
C289        C  0.82237496  0.87902922  0.31106930     1.04500
O290        O  0.84480791  0.86414693  0.39407487    -0.95100
O291        O  0.87277147  0.91637991  0.41759189    -0.90800
O292        O  0.85888559  0.95473834  0.44540771    -0.84000
C293        C  0.87560018  0.93333846  0.43967038     1.11200
O294        O  0.81600971  0.99922021  0.29306369    -0.97100
Zr295      Zr  0.82246678  0.99132227  0.34478351     1.88900
O296        O  0.85655244  0.01071892  0.41726203    -0.73700
O297        O  0.88782781  0.91545381  0.35702030    -0.53000
O298        O  0.86420891  0.98550738  0.31294232    -0.97700
O299        O  0.81090975  0.04242645  0.33935054    -0.54900
O300        O  0.86273610  0.01478509  0.36866805    -0.74200
C301        C  0.87057458  0.01962989  0.39487772     0.98100
O302        O  0.81538306  0.97913846  0.47802774    -0.63000
O303        O  0.70097010  0.98724050  0.41076389    -0.57800
O304        O  0.79082871  0.01772474  0.44822475    -0.94500
O305        O  0.74744485  0.02039153  0.42514950    -0.93000
O306        O  0.71264412  0.91262652  0.43289370    -0.93300
O307        O  0.76169504  0.90857813  0.46857380    -0.92100
C308        C  0.76520622  0.02828170  0.44495171     1.17000
H309        H  0.72066784  0.93156116  0.37572948     0.32900
H310        H  0.81989137  0.91557944  0.43613743     0.43800
H311        H  0.79685528  0.02461404  0.39071389     0.37300
H312        H  0.82741883  0.93619305  0.31926246     0.33800
H313        H  0.76124538  0.85466325  0.44306616     0.25500
H314        H  0.88551052  0.92295078  0.33709395     0.31500
H315        H  0.87842549  0.97448545  0.32454347     0.37400
H316        H  0.70745240  0.89238122  0.43745203     0.31900
H317        H  0.68876860  0.00188726  0.40100981     0.30700
H318        H  0.75210541  0.04805165  0.37209469     0.32400
H319        H  0.79257917  0.04277554  0.32827683     0.31400
H320        H  0.78076710  0.91625190  0.47455432     0.35400
H321        H  0.81682937  0.95878045  0.48443925     0.28100
H322        H  0.75365365  0.90553752  0.27819200     0.32300
H323        H  0.80174704  0.98443205  0.28706440     0.35200
H324        H  0.69193116  0.96850115  0.40577483     0.27800
H325        H  0.83396026  0.98806699  0.48384632     0.40700
H326        H  0.83903620  0.86506975  0.41473417     0.30700
H327        H  0.78621157  0.85307037  0.42013262     0.38400
H328        H  0.82568719  0.04985493  0.32570296     0.30200
H329        H  0.89730609  0.93141682  0.36770144     0.30300
H330        H  0.77888133  0.92797281  0.27408032     0.30500
Zr331      Zr  0.07036872  0.83230401  0.73252507     2.17500
O332        O  0.06961033  0.77974978  0.73673106    -0.51800
O333        O  0.11222187  0.84007618  0.76372747    -0.75000
O334        O  0.11073543  0.81045860  0.70807568    -0.81800
O335        O  0.00300115  0.83242738  0.77721042    -0.83600
O336        O  0.12175890  0.83581681  0.66738172    -0.79200
O337        O  0.04710189  0.81060736  0.77475594    -0.90800
O338        O  0.12010593  0.88832735  0.76665574    -0.76800
O339        O  0.09753777  0.87273357  0.71621835    -0.86300
O340        O  0.05269913  0.87216342  0.75989792    -0.86000
O341        O  0.06153676  0.83576256  0.68104982    -0.72700
O342        O  0.01997277  0.83492010  0.72008316    -0.84900
Zr343      Zr  0.02059395  0.92131488  0.68135153     2.26400
Zr344      Zr  0.08867149  0.87741121  0.66537416     2.06300
Zr345      Zr  0.00266486  0.87550912  0.74700984     2.10000
Zr346      Zr  0.07986916  0.91256875  0.74342878     1.78800
O347        O  0.95254955  0.85908164  0.74556266    -0.93700
O348        O  0.12272860  0.94004042  0.72985899    -0.41500
O349        O  0.02950619  0.91700422  0.73228729    -0.78100
O350        O  0.07132841  0.91831177  0.69268048    -0.96800
O351        O  0.03838021  0.88160581  0.65366010    -0.90100
O352        O  0.99284521  0.88062535  0.69633999    -0.92900
C353        C  0.12732786  0.86203694  0.77161699     1.00800
C354        C  0.02138111  0.81314404  0.78519337     1.13800
C355        C  0.12550343  0.81454873  0.68498300     1.04500
O356        O  0.13818670  0.89526776  0.66418512    -0.95100
O357        O  0.08942611  0.92032017  0.63355883    -0.90800
O358        O  0.04768841  0.94474662  0.64321019    -0.84000
C359        C  0.07158179  0.94143678  0.62937463     1.11200
O360        O  0.00686139  0.78830639  0.66922952    -0.97100
Zr361      Zr  0.01126150  0.84086936  0.66910685     1.88900
O362        O  0.98992652  0.91441670  0.63933738    -0.73700
O363        O  0.09041903  0.85842867  0.61609779    -0.53000
O364        O  0.02794083  0.81975844  0.62355585    -0.97700
O365        O  0.96177511  0.82350052  0.67530660    -0.54900
O366        O  0.98500850  0.86633076  0.63118234    -0.74200
C367        C  0.98076191  0.89290604  0.62436212     0.98100
O368        O  0.01488317  0.97373953  0.68209404    -0.63000
O369        O  0.99572606  0.89211396  0.79673636    -0.57800
O370        O  0.97888562  0.94339739  0.70512632    -0.94500
O371        O  0.97414396  0.91939560  0.74777651    -0.93000
O372        O  0.07374789  0.92355803  0.79474543    -0.93300
O373        O  0.07356994  0.96433844  0.75080884    -0.92100
C374        C  0.96756576  0.93992213  0.73032461     1.17000
H375        H  0.05523463  0.86911726  0.78043419     0.32900
H376        H  0.08118553  0.93572664  0.68682711     0.43800
H377        H  0.97244165  0.88363175  0.69279631     0.37300
H378        H  0.06838490  0.81853565  0.67132230     0.33800
H379        H  0.13492063  0.94039021  0.74747236     0.25500
H380        H  0.11030391  0.86266244  0.60927064     0.31500
H381        H  0.03289407  0.83649418  0.61119085     0.37400
H382        H  0.09027359  0.93626863  0.79961131     0.31900
H383        H  0.97607230  0.88542709  0.80207921     0.30700
H384        H  0.95331663  0.83822730  0.75024147     0.32400
H385        H  0.94914552  0.83993629  0.66992264     0.31400
H386        H  0.06776400  0.97179325  0.73158572     0.35400
H387        H  0.03473524  0.98158679  0.68388633     0.28100
H388        H  0.08874302  0.77429125  0.74471766     0.32300
H389        H  0.99472200  0.78339046  0.65225818     0.35200
H390        H  0.00895986  0.88020789  0.80862839     0.27800
H391        H  0.00849809  0.97914332  0.66236161     0.40700
H392        H  0.14403497  0.89385677  0.64357131     0.30700
H393        H  0.13330498  0.92725863  0.71620172     0.38400
H394        H  0.95925321  0.82152430  0.69651323     0.30200
H395        H  0.08999167  0.83715189  0.61830432     0.30300
H396        H  0.06974305  0.77236003  0.71656879     0.30500
Zr397      Zr  0.42570196  0.81781785  0.97485354     2.17500
O398        O  0.47832460  0.81373706  0.97632546    -0.51800
O399        O  0.42029296  0.86027815  0.00574758    -0.75000
O400        O  0.44724687  0.85782528  0.94915252    -0.81800
O401        O  0.41476968  0.75912143  0.03036273    -0.83600
O402        O  0.42242865  0.86658106  0.90743304    -0.79200
O403        O  0.44440276  0.79704163  0.02029064    -0.90800
O404        O  0.37225484  0.87005215  0.00930595    -0.76800
O405        O  0.38581647  0.84585218  0.95760613    -0.86300
O406        O  0.38489773  0.80296219  0.00244291    -0.86000
O407        O  0.42130677  0.80723188  0.92374151    -0.72700
O408        O  0.42114792  0.76705182  0.96431917    -0.84900
Zr409      Zr  0.33399773  0.76841772  0.92613051     2.26400
Zr410      Zr  0.38012881  0.83448311  0.90727440     2.06300
Zr411      Zr  0.37981504  0.75258080  0.99177401     2.10000
Zr412      Zr  0.34549514  0.83100805  0.98569186     1.78800
O413        O  0.40719826  0.70753691  0.99201340    -0.93700
O414        O  0.31880879  0.87453758  0.97247912    -0.41500
O415        O  0.33886564  0.78023868  0.97654463    -0.78100
O416        O  0.33892433  0.81960886  0.93561389    -0.96800
O417        O  0.37404696  0.78410126  0.89765428    -0.90100
O418        O  0.37451456  0.74071887  0.94164788    -0.92900
C419        C  0.39897819  0.87611277  0.01425596     1.00800
C420        C  0.43586769  0.77605404  0.03653932     1.13800
C421        C  0.44328465  0.87143703  0.92530509     1.04500
O422        O  0.36486454  0.88434701  0.89983781    -0.95100
O423        O  0.33617194  0.83597872  0.87746159    -0.90800
O424        O  0.31078048  0.79509140  0.88753951    -0.84000
C425        C  0.31444330  0.81891985  0.87386115     1.11200
O426        O  0.46684957  0.75016628  0.91716028    -0.97100
Zr427      Zr  0.41457656  0.75693751  0.91347192     1.88900
O428        O  0.34037982  0.73773245  0.88373207    -0.73700
O429        O  0.39844835  0.82982612  0.85789672    -0.53000
O430        O  0.43813889  0.77411117  0.86942973    -0.97700
O431        O  0.42743542  0.70578693  0.91553777    -0.54900
O432        O  0.38842014  0.73348858  0.87408489    -0.74200
C433        C  0.36166339  0.72920405  0.86785582     0.98100
O434        O  0.28146048  0.76389037  0.92872521    -0.63000
O435        O  0.35649924  0.74181974  0.03789839    -0.57800
O436        O  0.31244321  0.72588794  0.94983819    -0.94500
O437        O  0.33898902  0.71978325  0.99072285    -0.93000
O438        O  0.33428036  0.82362764  0.03671211    -0.93300
O439        O  0.29324270  0.83045020  0.99296905    -0.92100
C440        C  0.31772116  0.71320856  0.97410470     1.17000
H441        H  0.38755819  0.80660605  0.02287343     0.32900
H442        H  0.32165493  0.82982297  0.92979079     0.43800
H443        H  0.37120212  0.72029671  0.93883213     0.37300
H444        H  0.43862373  0.81327789  0.91369287     0.33800
H445        H  0.31993895  0.88726910  0.98972397     0.25500
H446        H  0.38533577  0.81582290  0.84838203     0.31500
H447        H  0.43902780  0.75705203  0.85644785     0.37400
H448        H  0.32626580  0.84238344  0.04337322     0.31900
H449        H  0.37010733  0.72889213  0.04821008     0.30700
H450        H  0.39456050  0.69337679  0.98210998     0.32400
H451        H  0.40932961  0.69513504  0.91143130     0.31400
H452        H  0.28645094  0.81362973  0.98156928     0.35400
H453        H  0.27397658  0.78396177  0.92930769     0.28100
H454        H  0.48500669  0.83189131  0.98553027     0.32300
H455        H  0.47241308  0.73801429  0.90033440     0.35200
H456        H  0.35703110  0.76024237  0.04885781     0.27800
H457        H  0.27551923  0.75625754  0.90957349     0.40700
H458        H  0.34436209  0.88500553  0.90613651     0.30700
H459        H  0.33112493  0.88412509  0.95781526     0.38400
H460        H  0.43134464  0.70200979  0.93626007     0.30200
H461        H  0.39377118  0.84857232  0.84870594     0.30300
H462        H  0.48473721  0.81516798  0.95588576     0.30500
Zr463      Zr  0.31109454  0.51744356  0.57705624     2.17500
O464        O  0.30601778  0.51439200  0.52455720    -0.51800
O465        O  0.35412455  0.48716612  0.58282575    -0.75000
O466        O  0.35035500  0.54128899  0.55281819    -0.81800
O467        O  0.24380433  0.47222461  0.58150033    -0.83600
O468        O  0.36229194  0.58206512  0.57764632    -0.79200
O469        O  0.28689398  0.47470789  0.55766293    -0.90800
O470        O  0.36337868  0.48430934  0.63098356    -0.76800
O471        O  0.33983490  0.53331105  0.61667390    -0.86300
O472        O  0.29426332  0.49069742  0.61756643    -0.86000
O473        O  0.30321284  0.56888007  0.58051459    -0.72700
O474        O  0.26102301  0.53075867  0.58172597    -0.84900
Zr475      Zr  0.26503141  0.56954833  0.66791510     2.26400
Zr476      Zr  0.33172047  0.58418627  0.62131363     2.06300
Zr477      Zr  0.24455914  0.50455344  0.62299166     2.10000
Zr478      Zr  0.32307982  0.50651667  0.65705694     1.78800
O479        O  0.19624551  0.50072509  0.60236663    -0.93700
O480        O  0.36534841  0.51915633  0.68588470    -0.41500
O481        O  0.27284016  0.51851429  0.66389927    -0.78100
O482        O  0.31548427  0.55746347  0.66294291    -0.96800
O483        O  0.28194974  0.59656393  0.62746708    -0.90100
O484        O  0.23640849  0.55527504  0.62765270    -0.92900
C485        C  0.37000648  0.47944276  0.60434292     1.00800
C486        C  0.26151720  0.46394932  0.56159111     1.13800
C487        C  0.36512437  0.56444054  0.55610710     1.04500
O488        O  0.38132860  0.58508834  0.63883355    -0.95100
O489        O  0.33231254  0.61694739  0.66338672    -0.90800
O490        O  0.29155660  0.60834340  0.68991392    -0.84000
C491        C  0.31524532  0.62184875  0.68504006     1.11200
O492        O  0.24226179  0.57693189  0.53597981    -0.97100
Zr493      Zr  0.25356216  0.58185008  0.58739068     1.88900
O494        O  0.23645255  0.61324064  0.66298765    -0.73700
O495        O  0.33522815  0.63361634  0.60353459    -0.53000
O496        O  0.27194531  0.62473851  0.56279158    -0.97700
O497        O  0.20188297  0.58181678  0.57618705    -0.54900
O498        O  0.23300743  0.62190345  0.61473698    -0.74200
C499        C  0.22875459  0.62885414  0.64138049     0.98100
O500        O  0.26525198  0.56349186  0.72039701    -0.63000
O501        O  0.24009333  0.45854080  0.64808803    -0.57800
O502        O  0.21908754  0.55242611  0.68705224    -0.94500
O503        O  0.20803763  0.51275353  0.65994417    -0.93000
O504        O  0.31687251  0.45493931  0.66545047    -0.93300
O505        O  0.31779611  0.49486560  0.70824343    -0.92100
C506        C  0.20267304  0.53116721  0.68013650     1.17000
H507        H  0.29639269  0.47015357  0.61441015     0.32900
H508        H  0.32594005  0.56347436  0.68000993     0.43800
H509        H  0.21618439  0.55970180  0.63068526     0.37300
H510        H  0.30958242  0.57813458  0.56292692     0.33800
H511        H  0.37673457  0.50103744  0.68714501     0.25500
H512        H  0.35618031  0.63809048  0.60418042     0.31500
H513        H  0.28329535  0.61763567  0.54598178     0.37400
H514        H  0.33606178  0.44815095  0.67217415     0.31900
H515        H  0.25345994  0.44529140  0.63773012     0.30700
H516        H  0.18869556  0.48207580  0.60961836     0.32400
H517        H  0.19188859  0.58809932  0.59414355     0.31400
H518        H  0.30650811  0.51114374  0.71651223     0.35400
H519        H  0.25985148  0.54304519  0.72362861     0.28100
H520        H  0.32409385  0.50516686  0.51749582     0.32300
H521        H  0.23298808  0.59540144  0.53035081     0.35200
H522        H  0.24938677  0.46183729  0.66712184     0.27800
H523        H  0.28595257  0.56427385  0.72588142     0.40700
H524        H  0.39044574  0.56762873  0.63030064     0.30700
H525        H  0.37697828  0.53179857  0.67310717     0.38400
H526        H  0.19678349  0.56114123  0.57408957     0.30200
H527        H  0.33066477  0.63234280  0.58262346     0.30300
H528        H  0.30702220  0.53459633  0.51759448     0.30500
Zr529      Zr  0.51665899  0.57942920  0.31835331     2.17500
O530        O  0.51227235  0.52693539  0.31613923    -0.51800
O531        O  0.48390227  0.58711102  0.35878216    -0.75000
O532        O  0.54141769  0.55661442  0.35853796    -0.81800
O533        O  0.47241517  0.58123513  0.25059470    -0.83600
O534        O  0.58308778  0.58090679  0.36829893    -0.79200
O535        O  0.47498340  0.55814888  0.29394617    -0.90800
O536        O  0.48195445  0.63529250  0.36794268    -0.76800
O537        O  0.53315501  0.61961961  0.34605161    -0.86300
O538        O  0.48946053  0.62004773  0.30217350    -0.86000
O539        O  0.56783756  0.58230470  0.30869951    -0.72700
O540        O  0.52801268  0.58345431  0.26778049    -0.84900
Zr541      Zr  0.56790303  0.66869573  0.26847795     2.26400
Zr542      Zr  0.58378437  0.62332777  0.33635876     2.06300
Zr543      Zr  0.50121582  0.62458881  0.25202523     2.10000
Zr544      Zr  0.50669567  0.66030117  0.32909052     1.78800
O545        O  0.49519452  0.60926366  0.20189535    -0.93700
O546        O  0.51757733  0.68754710  0.37297734    -0.41500
O547        O  0.51711310  0.66567175  0.27858489    -0.78100
O548        O  0.55740364  0.66496431  0.31960912    -0.96800
O549        O  0.59472363  0.62837162  0.28594511    -0.90100
O550        O  0.55169631  0.62842818  0.24095661    -0.92900
C551        C  0.47598369  0.60895113  0.37410738     1.00800
C552        C  0.46480325  0.56128627  0.26825285     1.13800
C553        C  0.56511988  0.56006919  0.37257212     1.04500
O554        O  0.58281108  0.64104290  0.38611100    -0.95100
O555        O  0.61661344  0.66478106  0.33622579    -0.90800
O556        O  0.60868130  0.68889677  0.29401700    -0.84000
C557        C  0.62194994  0.68521182  0.31810153     1.11200
O558        O  0.57239755  0.53666335  0.24988105    -0.97100
Zr559      Zr  0.57885519  0.58830255  0.25831222     1.88900
O560        O  0.60890719  0.66134311  0.23603309    -0.73700
O561        O  0.63329640  0.60522145  0.33876025    -0.53000
O562        O  0.62094933  0.56104923  0.27460754    -0.97700
O563        O  0.57562079  0.57660607  0.20683601    -0.54900
O564        O  0.62014653  0.61360688  0.23728305    -0.74200
C565        C  0.62572000  0.63988782  0.23024381     0.98100
O566        O  0.56695357  0.72138813  0.26780555    -0.63000
O567        O  0.45153951  0.64240770  0.25439819    -0.57800
O568        O  0.54418187  0.69089280  0.22636972    -0.94500
O569        O  0.50178799  0.66653601  0.22097537    -0.93000
O570        O  0.45615472  0.67312419  0.32111233    -0.93300
O571        O  0.50236971  0.71260498  0.32449595    -0.92100
C572        C  0.51928104  0.68701102  0.21441257     1.17000
H573        H  0.46894966  0.61716313  0.30515423     0.32900
H574        H  0.56381901  0.68216420  0.32957943     0.43800
H575        H  0.55484553  0.63149887  0.22049163     0.37300
H576        H  0.57742982  0.56487931  0.31504754     0.33800
H577        H  0.49840687  0.69251760  0.38132019     0.25500
H578        H  0.63963475  0.60965309  0.35876219     0.31500
H579        H  0.63378298  0.57571008  0.28346066     0.37400
H580        H  0.44935501  0.68066562  0.34005578     0.31900
H581        H  0.45341115  0.66339709  0.25818085     0.30700
H582        H  0.47550210  0.61583078  0.19654224     0.32400
H583        H  0.58632456  0.59210431  0.19669567     0.31400
H584        H  0.50834605  0.71686178  0.30433722     0.35400
H585        H  0.56823674  0.72743041  0.28836902     0.28100
H586        H  0.50370084  0.52116792  0.33494414     0.32300
H587        H  0.58888020  0.53061240  0.23747873     0.35200
H588        H  0.44432491  0.64113934  0.23425684     0.27800
H589        H  0.58564491  0.72723375  0.25905724     0.40700
H590        H  0.58263030  0.66237018  0.38442253     0.30700
H591        H  0.52571132  0.67309191  0.38649573     0.38400
H592        H  0.55506403  0.57996307  0.20177261     0.30200
H593        H  0.63154209  0.58390235  0.33822457     0.30300
H594        H  0.53238477  0.51946641  0.31658429     0.30500
Zr595      Zr  0.66556840  0.26820172  0.56654473     2.17500
O596        O  0.71798284  0.26492663  0.56058982    -0.51800
O597        O  0.66067726  0.23911459  0.61008764    -0.75000
O598        O  0.69001667  0.29516483  0.60396409    -0.81800
O599        O  0.65302271  0.21156419  0.50926790    -0.83600
O600        O  0.66472702  0.33604611  0.61483378    -0.79200
O601        O  0.68391122  0.22290250  0.54592972    -0.90800
O602        O  0.61288853  0.23763126  0.62147085    -0.76800
O603        O  0.62689141  0.28707206  0.59526326    -0.86300
O604        O  0.62389598  0.24079136  0.55427334    -0.86000
O605        O  0.66151846  0.31875414  0.55470838    -0.72700
O606        O  0.65940701  0.27579890  0.51547943    -0.84900
Zr607      Zr  0.57377729  0.31757287  0.51838629     2.26400
Zr608      Zr  0.62169256  0.33702515  0.58320869     2.06300
Zr609      Zr  0.61675533  0.24923210  0.50372734     2.10000
Zr610      Zr  0.58543106  0.25983149  0.58249210     1.78800
O611        O  0.63857086  0.24574891  0.45576368    -0.93700
O612        O  0.56263976  0.27447758  0.62795623    -0.41500
O613        O  0.57710376  0.26752673  0.53175219    -0.78100
O614        O  0.57957146  0.30961640  0.56975360    -0.96800
O615        O  0.61527248  0.34460699  0.53242594    -0.90100
O616        O  0.61274956  0.29889377  0.49020811    -0.92900
C617        C  0.63960221  0.23223821  0.62693425     1.00800
C618        C  0.67491707  0.20618915  0.52553243     1.13800
C619        C  0.68650962  0.31880948  0.61813476     1.04500
O620        O  0.60500659  0.34122771  0.63312541    -0.95100
O621        O  0.57869952  0.36915083  0.58358844    -0.90800
O622        O  0.55240716  0.35843595  0.54326200    -0.84000
C623        C  0.55689062  0.37297201  0.56650338     1.11200
O624        O  0.70608837  0.31848013  0.49827116    -0.97100
Zr625      Zr  0.65408998  0.32614810  0.50396241     1.88900
O626        O  0.58086314  0.35954605  0.48731029    -0.73700
O627        O  0.64173190  0.38568969  0.58021953    -0.53000
O628        O  0.68354357  0.36877472  0.51307239    -0.97700
O629        O  0.66203292  0.31973948  0.45198059    -0.54900
O630        O  0.62916328  0.36680563  0.48180471    -0.74200
C631        C  0.60261600  0.37429926  0.47816873     0.98100
O632        O  0.52089060  0.31536735  0.51766786    -0.63000
O633        O  0.59283597  0.20253870  0.49901906    -0.57800
O634        O  0.55277333  0.29438194  0.47525737    -0.94500
O635        O  0.57470986  0.25035362  0.47261569    -0.93000
O636        O  0.57302918  0.20918295  0.57497636    -0.93300
O637        O  0.53321570  0.25309938  0.58534165    -0.92100
C638        C  0.55560539  0.26878919  0.46450749     1.17000
H639        H  0.62663182  0.22054539  0.55852120     0.32900
H640        H  0.56270446  0.31647188  0.58012585     0.43800
H641        H  0.60889197  0.30083649  0.46975706     0.37300
H642        H  0.67916008  0.32866246  0.55985611     0.33800
H643        H  0.55932967  0.25622410  0.63861451     0.25500
H644        H  0.62901923  0.39770546  0.59270014     0.31500
H645        H  0.67513347  0.37751017  0.53080776     0.37400
H646        H  0.58534743  0.19831533  0.58870648     0.31900
H647        H  0.60308074  0.19263652  0.48291864     0.30700
H648        H  0.62385231  0.23592658  0.44370634     0.32400
H649        H  0.64383819  0.32585533  0.44246941     0.31400
H650        H  0.52494340  0.27213579  0.58007238     0.35400
H651        H  0.51629263  0.29447267  0.51722611     0.28100
H652        H  0.72534194  0.25739129  0.57924426     0.32300
H653        H  0.71080880  0.32410264  0.47813337     0.35200
H654        H  0.59840906  0.19162933  0.51657649     0.27800
H655        H  0.51432860  0.32158506  0.53715636     0.40700
H656        H  0.58387046  0.33779998  0.63220712     0.30700
H657        H  0.57820897  0.28424775  0.63892926     0.38400
H658        H  0.66293783  0.29856579  0.44900658     0.30200
H659        H  0.66041825  0.38503308  0.59065455     0.30300
H660        H  0.72481844  0.28518197  0.55977665     0.30500
Zr661      Zr  0.68111101  0.02179129  0.91819143     2.17500
O662        O  0.68261698  0.01747139  0.97083422    -0.51800
O663        O  0.64011371  0.99041001  0.90968545    -0.75000
O664        O  0.64126469  0.04688710  0.94114670    -0.81800
O665        O  0.74245224  0.96868543  0.90848344    -0.83600
O666        O  0.63352354  0.08992382  0.91860520    -0.79200
O667        O  0.70303224  0.97720234  0.93694541    -0.90800
O668        O  0.63057431  0.99055867  0.86146901    -0.76800
O669        O  0.65381814  0.03976185  0.87820920    -0.86300
O670        O  0.69729427  0.99570733  0.87677938    -0.86000
O671        O  0.69099053  0.07292110  0.91614077    -0.72700
O672        O  0.73186602  0.03221331  0.91527277    -0.84900
Zr673      Zr  0.73260141  0.07409133  0.83039004     2.26400
Zr674      Zr  0.66422309  0.09026024  0.87485907     2.06300
Zr675      Zr  0.74765239  0.00655989  0.87313582     2.10000
Zr676      Zr  0.67077013  0.01399730  0.83691703     1.78800
O677        O  0.79324722  0.99775179  0.89799185    -0.93700
O678        O  0.62906182  0.03040514  0.80913821    -0.41500
O679        O  0.72164558  0.02362226  0.83205903    -0.78100
O680        O  0.68142189  0.06430847  0.83287354    -0.96800
O681        O  0.71489400  0.10055939  0.87118470    -0.90100
O682        O  0.75881340  0.05682017  0.87094286    -0.92900
C683        C  0.62447614  0.98374166  0.88772940     1.00800
C684        C  0.72508146  0.96192879  0.92908459     1.13800
C685        C  0.62874240  0.07154531  0.93903938     1.04500
O686        O  0.61451692  0.08966993  0.85734280    -0.95100
O687        O  0.66491595  0.12245164  0.83239328    -0.90800
O688        O  0.70769124  0.11464660  0.80887941    -0.84000
C689        C  0.68337657  0.12778777  0.81204223     1.11200
O690        O  0.75084325  0.07537986  0.96287392    -0.97100
Zr691      Zr  0.74142580  0.08312584  0.91155557     1.88900
O692        O  0.76458936  0.11454405  0.83938207    -0.73700
O693        O  0.66060849  0.14027042  0.89126787    -0.53000
O694        O  0.72461804  0.12458362  0.93977202    -0.97700
O695        O  0.79262386  0.08035555  0.92431716    -0.54900
O696        O  0.76491401  0.12350094  0.88770722    -0.74200
C697        C  0.77155202  0.12988757  0.86149199     0.98100
O698        O  0.73700979  0.07176545  0.77782031    -0.63000
O699        O  0.75023095  0.96281283  0.84368984    -0.57800
O700        O  0.77726013  0.05265161  0.81092778    -0.94500
O701        O  0.78636374  0.01301451  0.83857580    -0.93000
O702        O  0.67730384  0.96351736  0.82312137    -0.93300
O703        O  0.67454735  0.00514681  0.78499922    -0.92100
C704        C  0.79281853  0.03072848  0.81824741     1.17000
H705        H  0.69388280  0.97522094  0.87877540     0.32900
H706        H  0.67196351  0.07097427  0.81549500     0.43800
H707        H  0.77931512  0.06002893  0.86854208     0.37300
H708        H  0.68472886  0.08228254  0.93379928     0.33800
H709        H  0.61906184  0.01245574  0.80313128     0.25500
H710        H  0.65971232  0.13926135  0.91267409     0.31500
H711        H  0.72783818  0.14158472  0.92719938     0.37400
H712        H  0.65867462  0.95402771  0.82775726     0.31900
H713        H  0.73939121  0.94805909  0.85476522     0.30700
H714        H  0.80216906  0.01710128  0.89992712     0.32400
H715        H  0.79639260  0.09830159  0.93542424     0.31400
H716        H  0.69360989  0.01318544  0.77941973     0.35400
H717        H  0.71683049  0.07121114  0.77063257     0.28100
H718        H  0.66327994  0.01027731  0.97666635     0.32300
H719        H  0.73868127  0.05861522  0.96821116     0.35200
H720        H  0.73781460  0.96690063  0.82672946     0.27800
H721        H  0.74444968  0.09092624  0.77191039     0.40700
H722        H  0.60719159  0.10946274  0.86111968     0.30700
H723        H  0.61594498  0.03923920  0.82368959     0.38400
H724        H  0.80346276  0.08308163  0.90600447     0.30200
H725        H  0.67989521  0.14863566  0.88713103     0.30300
H726        H  0.68340153  0.03758300  0.97820161     0.30500
Zr727      Zr  0.91984937  0.67785885  0.01921301     2.17500
O728        O  0.97231858  0.67678579  0.01288267    -0.51800
O729        O  0.91097342  0.63427171  0.99103181    -0.75000
O730        O  0.94195675  0.64056526  0.04838970    -0.81800
O731        O  0.91172717  0.73565092  0.96169931    -0.83600
O732        O  0.91705767  0.63397846  0.09049806    -0.79200
O733        O  0.94086673  0.69809951  0.97455959    -0.90800
O734        O  0.86272945  0.62534518  0.99118716    -0.76800
O735        O  0.87964237  0.65280949  0.03983158    -0.86300
O736        O  0.87879110  0.69178481  0.99166097    -0.86000
O737        O  0.91726985  0.69246685  0.06935093    -0.72700
O738        O  0.91688515  0.72922581  0.02538647    -0.84900
Zr739      Zr  0.83158935  0.73416586  0.06774000     2.26400
Zr740      Zr  0.87586704  0.66789626  0.08945425     2.06300
Zr741      Zr  0.87497229  0.74288056  0.99848121     2.10000
Zr742      Zr  0.83875359  0.66713821  0.01230298     1.78800
O743        O  0.90020267  0.78808302  0.98917664    -0.93700
O744        O  0.81138450  0.62604567  0.03084093    -0.41500
O745        O  0.83388651  0.71848712  0.01809033    -0.78100
O746        O  0.83426914  0.68235616  0.06161983    -0.96800
O747        O  0.87231550  0.71919378  0.09555947    -0.90100
O748        O  0.87196582  0.75905703  0.04776348    -0.92900
C749        C  0.88896202  0.61835747  0.98519822     1.00800
C750        C  0.93341520  0.71877627  0.95744301     1.13800
C751        C  0.93806540  0.62815118  0.07290355     1.04500
O752        O  0.85824326  0.61914035  0.09832414    -0.95100
O753        O  0.83258330  0.67084013  0.12107022    -0.90800
O754        O  0.80657619  0.71015503  0.10705222    -0.84000
C755        C  0.81039778  0.68783492  0.12304330     1.11200
O756        O  0.96491056  0.74970755  0.07053956    -0.97100
Zr757      Zr  0.91273320  0.74367469  0.07521169     1.88900
O758        O  0.84152340  0.76682882  0.10822716    -0.73700
O759        O  0.89700476  0.67316690  0.13749706    -0.53000
O760        O  0.94193425  0.73266583  0.11763671    -0.97700
O761        O  0.92568816  0.79341437  0.06373436    -0.54900
O762        O  0.89005271  0.76995727  0.11485645    -0.74200
C763        C  0.86384687  0.77546366  0.12243703     0.98100
O764        O  0.77970066  0.74445079  0.06754274    -0.63000
O765        O  0.84962998  0.74371446  0.95225141    -0.57800
O766        O  0.81042159  0.77442399  0.04060025    -0.94500
O767        O  0.83555124  0.77730052  0.99830474    -0.93000
O768        O  0.82653337  0.67021876  0.96109572    -0.93300
O769        O  0.78652374  0.66958693  0.00560875    -0.92100
C770        C  0.81508776  0.78534767  0.01539888     1.17000
H771        H  0.88119910  0.68667193  0.97148570     0.32900
H772        H  0.81687179  0.67321597  0.06865464     0.43800
H773        H  0.86919920  0.77972136  0.04896196     0.37300
H774        H  0.93468742  0.68670980  0.07933924     0.33800
H775        H  0.81717927  0.60930209  0.01872639     0.25500
H776        H  0.88166544  0.68224123  0.14950706     0.31500
H777        H  0.93078134  0.71784781  0.12826703     0.37400
H778        H  0.81670281  0.65172735  0.95668656     0.31900
H779        H  0.85901313  0.75943348  0.94117154     0.30700
H780        H  0.88851205  0.80310445  0.99912150     0.32400
H781        H  0.90874814  0.80530680  0.06944863     0.31400
H782        H  0.78003618  0.68505969  0.01902041     0.35400
H783        H  0.77021987  0.72551934  0.06444320     0.28100
H784        H  0.97680009  0.65717375  0.00542828     0.32300
H785        H  0.96955351  0.74279671  0.05073581     0.35200
H786        H  0.85567802  0.72575636  0.94218104     0.27800
H787        H  0.77453172  0.75014174  0.08760856     0.40700
H788        H  0.85735102  0.61744575  0.11969184     0.30700
H789        H  0.81986172  0.62198485  0.05008371     0.38400
H790        H  0.92603903  0.79415246  0.04230671     0.30200
H791        H  0.89863729  0.65319819  0.14498230     0.30300
H792        H  0.98053696  0.67728021  0.03267467     0.30500
C793        C  0.73126043  0.93403535  0.94346141    -0.01800
C794        C  0.72832350  0.93009721  0.97340372    -0.09800
C795        C  0.73845459  0.90462167  0.98655109    -0.18600
C796        C  0.75176626  0.88237928  0.96991638     0.03800
C797        C  0.75288341  0.88606394  0.93935454     0.17900
C798        C  0.74269137  0.91149915  0.92662884    -0.20100
C799        C  0.76516425  0.86483215  0.92152908    -0.21300
C800        C  0.77767911  0.84039489  0.93342986    -0.19900
C801        C  0.77834693  0.83665795  0.96345730     0.19300
C802        C  0.76491998  0.85714015  0.98226202     0.01500
C803        C  0.76630801  0.85182483  0.01246862    -0.14600
C804        C  0.78162942  0.82796656  0.02341398    -0.12300
C805        C  0.79597581  0.80879845  0.00462924     0.01000
C806        C  0.79339643  0.81292849  0.97469016    -0.24500
H807        H  0.71935079  0.94719675  0.98678982     0.09000
H808        H  0.73625516  0.90320319  0.00976642     0.12600
H809        H  0.74448032  0.91416034  0.90333540     0.11300
H810        H  0.76576557  0.86749323  0.89820210     0.12500
H811        H  0.78766229  0.82468260  0.91904341     0.11500
H812        H  0.75639963  0.86612250  0.02811859     0.08600
H813        H  0.78311786  0.82511264  0.04664796     0.11900
H814        H  0.80387894  0.79790331  0.95989480     0.13700
C815        C  0.64653800  0.21807778  0.65498356    -0.01800
C816        C  0.67523625  0.21645032  0.66470656    -0.09800
C817        C  0.68183084  0.20451984  0.69167510    -0.18600
C818        C  0.65981651  0.19366515  0.71004153     0.03800
C819        C  0.63076086  0.19517169  0.70008444     0.17900
C820        C  0.62441096  0.20737467  0.67293809    -0.20100
C821        C  0.60820182  0.18426871  0.71718038    -0.21300
C822        C  0.61395537  0.17096175  0.74356740    -0.19900
C823        C  0.64238696  0.16855058  0.75374650     0.19300
C824        C  0.66563743  0.18065469  0.73752063     0.01500
C825        C  0.69379030  0.17863684  0.74924965    -0.14600
C826        C  0.69894963  0.16306828  0.77453875    -0.12300
C827        C  0.67632067  0.14928483  0.78934100     0.01000
C828        C  0.64787077  0.15314420  0.77949621    -0.24500
H829        H  0.69279716  0.22474149  0.65154650     0.09000
H830        H  0.70442964  0.20390826  0.69737193     0.12600
H831        H  0.60208828  0.20845810  0.66578467     0.11300
H832        H  0.58596352  0.18553572  0.70982402     0.12500
H833        H  0.59606226  0.16211719  0.75590504     0.11500
H834        H  0.71242611  0.18826187  0.73906893     0.08600
H835        H  0.72107493  0.16094844  0.78204166     0.11900
H836        H  0.63019870  0.14265561  0.79082841     0.13700
C837        C  0.57208619  0.53738889  0.39404185    -0.01800
C838        C  0.54967803  0.52501228  0.41028258    -0.09800
C839        C  0.55419223  0.49978096  0.42616693    -0.18600
C840        C  0.58125961  0.48541458  0.42557730     0.03800
C841        C  0.60439212  0.49887230  0.41028169     0.17900
C842        C  0.59977506  0.52495085  0.39519118    -0.20100
C843        C  0.63157742  0.48545640  0.40891352    -0.21300
C844        C  0.63611913  0.45861745  0.42171578    -0.19900
C845        C  0.61366516  0.44453781  0.43642630     0.19300
C846        C  0.58594232  0.45779942  0.43876472     0.01500
C847        C  0.56396471  0.44249208  0.45361603    -0.14600
C848        C  0.56932208  0.41531910  0.46564997    -0.12300
C849        C  0.59673691  0.40235581  0.46353688     0.01000
C850        C  0.61880096  0.41719783  0.44877921    -0.24500
H851        H  0.52816966  0.53444439  0.40990980     0.09000
H852        H  0.53573316  0.49153748  0.43779044     0.12600
H853        H  0.61718340  0.53435345  0.38254907     0.11300
H854        H  0.64931912  0.49551349  0.39732048     0.12500
H855        H  0.65731455  0.44865446  0.41983725     0.11500
H856        H  0.54235212  0.45089333  0.45635451     0.08600
H857        H  0.55190137  0.40462336  0.47711833     0.11900
H858        H  0.64012448  0.40749061  0.44690990     0.13700
C859        C  0.78640947  0.68085834  0.14358302    -0.01800
C860        C  0.78313088  0.65304785  0.15510255    -0.09800
C861        C  0.75800079  0.64547390  0.17046977    -0.18600
C862        C  0.73514513  0.66557423  0.17474789     0.03800
C863        C  0.73937435  0.69419459  0.16450280     0.17900
C864        C  0.76471273  0.70151441  0.14930281    -0.20100
C865        C  0.71794742  0.71526063  0.16875251    -0.21300
C866        C  0.69212439  0.70847181  0.18264471    -0.19900
C867        C  0.68685375  0.68034459  0.19233855     0.19300
C868        C  0.70817151  0.65839304  0.18845984     0.01500
C869        C  0.70122949  0.63018918  0.19796184    -0.14600
C870        C  0.67446863  0.62419926  0.21099571    -0.12300
C871        C  0.65365922  0.64602710  0.21516576     0.01000
C872        C  0.66019798  0.67409354  0.20572894    -0.24500
H873        H  0.79953587  0.63669477  0.15127368     0.09000
H874        H  0.75687103  0.62359056  0.17832416     0.12600
H875        H  0.76706785  0.72331100  0.14105371     0.11300
H876        H  0.72108786  0.73714852  0.16105949     0.12500
H877        H  0.67597188  0.72529566  0.18547863     0.11500
H878        H  0.71595726  0.61224605  0.19541571     0.08600
H879        H  0.67020334  0.60231297  0.21805971     0.11900
H880        H  0.64444580  0.69127339  0.20872245     0.13700
C881        C  0.39820640  0.46476490  0.59817420    -0.01800
C882        C  0.41074786  0.46581001  0.57045252    -0.09800
C883        C  0.43784464  0.45317433  0.56492586    -0.18600
C884        C  0.45343381  0.43878034  0.58703537     0.03800
C885        C  0.44041789  0.43731429  0.61493834     0.17900
C886        C  0.41338488  0.45050136  0.62030152    -0.20100
C887        C  0.45432410  0.42244284  0.63735309    -0.21300
C888        C  0.48069398  0.40853291  0.63260696    -0.19900
C889        C  0.49427608  0.40964743  0.60548161     0.19300
C890        C  0.48112254  0.42529613  0.58242760     0.01500
C891        C  0.49615357  0.42643369  0.55572325    -0.14600
C892        C  0.52196901  0.41109476  0.55154529    -0.12300
C893        C  0.53404467  0.39441780  0.57379224     0.01000
C894        C  0.52052453  0.39448200  0.60102772    -0.24500
H895        H  0.39975140  0.47681634  0.55293906     0.09000
H896        H  0.44590012  0.45481493  0.54305446     0.12600
H897        H  0.40401017  0.44938461  0.64183551     0.11300
H898        H  0.44450079  0.42117942  0.65866793     0.12500
H899        H  0.49051332  0.39673649  0.65031228     0.11500
H900        H  0.48821983  0.43852522  0.53745636     0.08600
H901        H  0.53209092  0.41140829  0.53033643     0.11900
H902        H  0.52948187  0.38132358  0.61824212     0.13700
C903        C  0.38542293  0.57139751  0.53226777    -0.01800
C904        C  0.39569360  0.59952340  0.52817580    -0.09800
C905        C  0.41151829  0.60660400  0.50330661    -0.18600
C906        C  0.41731919  0.58566673  0.48155232     0.03800
C907        C  0.40759800  0.55697714  0.48636561     0.17900
C908        C  0.39216517  0.55013098  0.51153582    -0.20100
C909        C  0.41259203  0.53533354  0.46569552    -0.21300
C910        C  0.42680412  0.54161877  0.43997231    -0.19900
C911        C  0.43632965  0.56970260  0.43430105     0.19300
C912        C  0.43188234  0.59215090  0.45500813     0.01500
C913        C  0.44185577  0.62013326  0.44800791    -0.14600
C914        C  0.45548966  0.62556216  0.42157204    -0.12300
C915        C  0.45987376  0.60334332  0.40128192     0.01000
C916        C  0.45023015  0.57543178  0.40789714    -0.24500
H917        H  0.39065180  0.61637867  0.54374488     0.09000
H918        H  0.41833767  0.62877246  0.50148370     0.12600
H919        H  0.38457118  0.52816494  0.51450268     0.11300
H920        H  0.40515185  0.51342817  0.46930783     0.12500
H921        H  0.43015196  0.52442907  0.42429347     0.11500
H922        H  0.43947908  0.63830745  0.46246807     0.08600
H923        H  0.46302242  0.64728456  0.41724303     0.11900
H924        H  0.45357241  0.55799681  0.39247721     0.13700
C925        C  0.50890909  0.70719655  0.19174958    -0.01800
C926        C  0.47940624  0.71430193  0.19116612    -0.09800
C927        C  0.46748861  0.72952290  0.16805506    -0.18600
C928        C  0.48469227  0.73792657  0.14415056     0.03800
C929        C  0.51493554  0.73197103  0.14536688     0.17900
C930        C  0.52684691  0.71699038  0.16924627    -0.20100
C931        C  0.53282339  0.73998345  0.12218144    -0.21300
C932        C  0.52119070  0.75247456  0.09727835    -0.19900
C933        C  0.49132949  0.75739320  0.09484816     0.19300
C934        C  0.47276491  0.75087650  0.11862781     0.01500
C935        C  0.44284943  0.75651500  0.11535803    -0.14600
C936        C  0.43164592  0.76607643  0.08904150    -0.12300
C937        C  0.44966817  0.77099407  0.06510944     0.01000
C938        C  0.47970865  0.76765890  0.06841784    -0.24500
H939        H  0.46518784  0.70735256  0.20851711     0.09000
H940        H  0.44454223  0.73357559  0.16924264     0.12600
H941        H  0.54969125  0.71151894  0.16948911     0.11300
H942        H  0.55591773  0.73583895  0.12297455     0.12500
H943        H  0.53560047  0.75764748  0.07947126     0.11500
H944        H  0.42731925  0.75295124  0.13241762     0.08600
H945        H  0.40841996  0.76892290  0.08710742     0.11900
H946        H  0.49380939  0.77138439  0.04998909     0.13700
C947        C  0.46533371  0.89337748  0.91824820    -0.01800
C948        C  0.47727837  0.90983160  0.94071846    -0.09800
C949        C  0.50202851  0.92636468  0.93620630    -0.18600
C950        C  0.51617735  0.92642371  0.90901892     0.03800
C951        C  0.50289790  0.91124758  0.88572302     0.17900
C952        C  0.47750707  0.89507979  0.89046084    -0.20100
C953        C  0.51565280  0.91145244  0.85816094    -0.21300
C954        C  0.54151568  0.92609022  0.85331483    -0.19900
C955        C  0.55557131  0.94041007  0.87603331     0.19300
C956        C  0.54323683  0.94055180  0.90429035     0.01500
C957        C  0.55893741  0.95411501  0.92678668    -0.14600
C958        C  0.58539060  0.96748005  0.92132635    -0.12300
C959        C  0.59713626  0.96801927  0.89330717     0.01000
C960        C  0.58207432  0.95436797  0.87073572    -0.24500
H961        H  0.46787652  0.90916841  0.96225813     0.09000
H962        H  0.50983556  0.93835571  0.95462418     0.12600
H963        H  0.46832188  0.88236336  0.87299485     0.11300
H964        H  0.50567543  0.90001642  0.84027008     0.12500
H965        H  0.55084971  0.92578439  0.83173933     0.11500
H966        H  0.55158015  0.95452631  0.94895043     0.08600
H967        H  0.59647729  0.97786156  0.93919607     0.11900
H968        H  0.59108389  0.95439147  0.84901107     0.13700
C969        C  0.35468587  0.71468190  0.83993088    -0.01800
C970        C  0.32659063  0.71651763  0.82858643    -0.09800
C971        C  0.31987444  0.70442703  0.80170658    -0.18600
C972        C  0.34109142  0.68968554  0.78511566     0.03800
C973        C  0.36967854  0.68820697  0.79638923     0.17900
C974        C  0.37617832  0.70057558  0.82351986    -0.20100
C975        C  0.39160424  0.67430565  0.78055943    -0.21300
C976        C  0.38563175  0.66119741  0.75406447    -0.19900
C977        C  0.35750390  0.66134898  0.74285436     0.19300
C978        C  0.33485904  0.67587799  0.75808247     0.01500
C979        C  0.30672476  0.67498440  0.74613313    -0.14600
C980        C  0.30103714  0.65888952  0.72126175    -0.12300
C981        C  0.32313872  0.64359643  0.70705261     0.01000
C982        C  0.35156699  0.64581526  0.71725914    -0.24500
H983        H  0.30964709  0.72783094  0.84033269     0.09000
H984        H  0.29786220  0.70713892  0.79453425     0.12600
H985        H  0.39806898  0.69919550  0.83184959     0.11300
H986        H  0.41350588  0.67328989  0.78888608     0.12500
H987        H  0.40301377  0.65023914  0.74260586     0.11500
H988        H  0.28836621  0.68549953  0.75606024     0.08600
H989        H  0.27888699  0.65751284  0.71364997     0.11900
H990        H  0.36867432  0.63372153  0.70652576     0.13700
C991        C  0.94960342  0.72364883  0.93015322    -0.01800
C992        C  0.93386826  0.72482284  0.90434670    -0.09800
C993        C  0.94641235  0.73499448  0.87886416    -0.18600
C994        C  0.97517450  0.74537957  0.87846477     0.03800
C995        C  0.99180831  0.74251499  0.90423300     0.17900
C996        C  0.97899444  0.73142383  0.92979639    -0.20100
C997        C  0.02061163  0.75204712  0.90459497    -0.21300
C998        C  0.03283272  0.76537940  0.88037073    -0.19900
C999        C  0.01649382  0.76988123  0.85521306     0.19300
C1000       C  0.98748855  0.75963080  0.85384306     0.01500
C1001       C  0.97148519  0.76546375  0.82842696    -0.14600
C1002       C  0.98319686  0.78191010  0.80605478    -0.12300
C1003       C  0.01143714  0.79262242  0.80767930     0.01000
C1004       C  0.02842724  0.78572466  0.83190414    -0.24500
H1005       H  0.91122697  0.71868287  0.90414106     0.09000
H1006       H  0.93263213  0.73525059  0.86008739     0.12600
H1007       H  0.99127457  0.73066945  0.94977077     0.11300
H1008       H  0.03358374  0.74980104  0.92399490     0.12500
H1009       H  0.05494775  0.77306103  0.88166612     0.11500
H1010       H  0.94942597  0.75859133  0.82551384     0.08600
H1011       H  0.96979005  0.78680060  0.78745096     0.11900
H1012       H  0.05026732  0.79415181  0.83337681     0.13700
C1013       C  0.94526661  0.96045839  0.74061629    -0.01800
C1014       C  0.92472556  0.97242855  0.72185264    -0.09800
C1015       C  0.90095390  0.98790541  0.73291345    -0.18600
C1016       C  0.89713821  0.99168796  0.76318752     0.03800
C1017       C  0.91905104  0.98066420  0.78177483     0.17900
C1018       C  0.94285903  0.96574579  0.77036983    -0.20100
C1019       C  0.91649344  0.98322512  0.81184489    -0.21300
C1020       C  0.89191974  0.99537518  0.82412576    -0.19900
C1021       C  0.86950689  0.00561701  0.80661328     0.19300
C1022       C  0.87195883  0.00476663  0.77589212     0.01500
C1023       C  0.84863640  0.01613484  0.75950210    -0.14600
C1024       C  0.82331482  0.02621983  0.77314434    -0.12300
C1025       C  0.82060543  0.02513669  0.80333456     0.01000
C1026       C  0.84413377  0.01569732  0.81984987    -0.24500
H1027       H  0.92626984  0.96862006  0.69872734     0.09000
H1028       H  0.88540537  0.99570376  0.71739088     0.12600
H1029       H  0.95902959  0.95697116  0.78495084     0.11300
H1030       H  0.93320039  0.97487591  0.82602789     0.12500
H1031       H  0.89015052  0.99617398  0.84754422     0.11500
H1032       H  0.84910029  0.01687490  0.73616191     0.08600
H1033       H  0.80535013  0.03359441  0.76003182     0.11900
H1034       H  0.84226610  0.01531158  0.84329702     0.13700
C1035       C  0.14662041  0.79158690  0.67790114    -0.01800
C1036       C  0.15315973  0.78485142  0.64908294    -0.09800
C1037       C  0.16781773  0.75929019  0.64215255    -0.18600
C1038       C  0.17632314  0.73958239  0.66401844     0.03800
C1039       C  0.17082597  0.74731304  0.69332859     0.17900
C1040       C  0.15647594  0.77320001  0.69995310    -0.20100
C1041       C  0.17868142  0.72869813  0.71585481    -0.21300
C1042       C  0.19154430  0.70216805  0.70987917    -0.19900
C1043       C  0.19686656  0.69364206  0.68124021     0.19300
C1044       C  0.18950314  0.71228213  0.65789522     0.01500
C1045       C  0.19530393  0.70259466  0.62941951    -0.14600
C1046       C  0.20764654  0.67555207  0.62433158    -0.12300
C1047       C  0.21477822  0.65714279  0.64732546     0.01000
C1048       C  0.20942709  0.66646952  0.67580365    -0.24500
H1049       H  0.14553825  0.79857260  0.63170122     0.09000
H1050       H  0.17135297  0.75523324  0.61942945     0.12600
H1051       H  0.15169533  0.77837139  0.72241633     0.11300
H1052       H  0.17448416  0.73453186  0.73824942     0.12500
H1053       H  0.19713663  0.68811343  0.72777508     0.11500
H1054       H  0.19055559  0.71534099  0.61052875     0.08600
H1055       H  0.21176189  0.66916260  0.60209890     0.11900
H1056       H  0.21504677  0.65260198  0.69384741     0.13700
C1057       C  0.15548207  0.85684797  0.78635296    -0.01800
C1058       C  0.17136609  0.87994073  0.79805310    -0.09800
C1059       C  0.19858337  0.87543912  0.81053604    -0.18600
C1060       C  0.21097331  0.84748955  0.81176663     0.03800
C1061       C  0.19473245  0.82414911  0.79998251     0.17900
C1062       C  0.16749745  0.82900992  0.78736748    -0.20100
C1063       C  0.20561364  0.79593915  0.80103562    -0.21300
C1064       C  0.23192309  0.79018027  0.81431382    -0.19900
C1065       C  0.24829023  0.81254936  0.82640399     0.19300
C1066       C  0.23852169  0.84165612  0.82475417     0.01500
C1067       C  0.25661836  0.86340928  0.83656634    -0.14600
C1068       C  0.28239939  0.85625988  0.85088678    -0.12300
C1069       C  0.29081535  0.82732706  0.85395390     0.01000
C1070       C  0.27404366  0.80573814  0.84089140    -0.24500
H1071       H  0.16277920  0.90174071  0.79751489     0.09000
H1072       H  0.20928702  0.89421803  0.81923849     0.12600
H1073       H  0.15571851  0.81096681  0.77812081     0.11300
H1074       H  0.19342783  0.77808692  0.79197195     0.12500
H1075       H  0.23941426  0.76798250  0.81535937     0.11500
H1076       H  0.25116629  0.88604757  0.83555108     0.08600
H1077       H  0.29501148  0.87331072  0.86083149     0.11900
H1078       H  0.28062098  0.78329556  0.84284442     0.13700
C1079       C  0.71736981  0.83829379  0.35642897    -0.01800
C1080       C  0.71652476  0.82815682  0.32780512    -0.09800
C1081       C  0.70331389  0.80198868  0.32102850    -0.18600
C1082       C  0.69026366  0.78488719  0.34276701     0.03800
C1083       C  0.69114867  0.79515477  0.37181094     0.13100
C1084       C  0.70462970  0.82159105  0.37836229    -0.20100
C1085       C  0.67855083  0.77898677  0.39412231    -0.21300
C1086       C  0.66458116  0.75303158  0.38813729    -0.19900
C1087       C  0.66284672  0.74260401  0.35968675     0.19300
C1088       C  0.67602224  0.75821815  0.33664088     0.01500
C1089       C  0.67384188  0.74675665  0.30832614    -0.14600
C1090       C  0.65785102  0.72190482  0.30290789    -0.12300
C1091       C  0.64366294  0.70739060  0.32539709     0.01000
C1092       C  0.64708081  0.71722048  0.35393163    -0.24500
H1093       H  0.72647706  0.84033655  0.31042493     0.09000
H1094       H  0.70376167  0.79584925  0.29851450     0.12600
H1095       H  0.70515934  0.82915464  0.40061493     0.11300
H1096       H  0.67927605  0.78660164  0.41634166     0.12500
H1097       H  0.65470768  0.74123731  0.40583867     0.11500
H1098       H  0.68354343  0.75682256  0.28968773     0.08600
H1099       H  0.65572300  0.71453097  0.28069829     0.11900
H1100       H  0.63596776  0.70619175  0.37141602     0.13700
C1101       C  0.83073369  0.86014149  0.28623467    -0.01800
C1102       C  0.85949704  0.85798825  0.27671723    -0.09800
C1103       C  0.86633482  0.84378503  0.25063195    -0.18600
C1104       C  0.84444971  0.83132547  0.23309268     0.03800
C1105       C  0.81544943  0.83282938  0.24340315     0.17900
C1106       C  0.80898516  0.84686206  0.26966546    -0.20100
C1107       C  0.79282446  0.82110323  0.22704834    -0.21300
C1108       C  0.79821879  0.80843768  0.20024025    -0.19900
C1109       C  0.82641625  0.80691001  0.18916585     0.19300
C1110       C  0.85004334  0.81797440  0.20551045     0.01500
C1111       C  0.87809484  0.81532436  0.19335712    -0.14600
C1112       C  0.88241282  0.80230577  0.16622753    -0.12300
C1113       C  0.85900901  0.79150250  0.15013274     0.01000
C1114       C  0.83103654  0.79412776  0.16184476    -0.24500
H1115       H  0.87665092  0.86834893  0.28884756     0.09000
H1116       H  0.88884127  0.84357317  0.24439551     0.12600
H1117       H  0.78661738  0.84824173  0.27681437     0.11300
H1118       H  0.77067889  0.82213293  0.23485557     0.12500
H1119       H  0.78014327  0.79986897  0.18800831     0.11500
H1120       H  0.89717358  0.82287184  0.20441208     0.08600
H1121       H  0.90432968  0.80041216  0.15800279     0.11900
H1122       H  0.81270188  0.78562311  0.14994849     0.13700
C1123       C  0.89841346  0.92787432  0.46144846    -0.01800
C1124       C  0.90887068  0.95117853  0.47784823    -0.09800
C1125       C  0.92440300  0.94660819  0.50326055    -0.18600
C1126       C  0.92962033  0.91834015  0.51348556     0.03800
C1127       C  0.92142464  0.89477199  0.49539274     0.17900
C1128       C  0.90610647  0.89971487  0.46947888    -0.20100
C1129       C  0.92729522  0.86639057  0.50402477    -0.21300
C1130       C  0.94021456  0.86084884  0.53066153    -0.19900
C1131       C  0.94709913  0.88350929  0.54960401     0.19300
C1132       C  0.94192276  0.91261250  0.54129468     0.01500
C1133       C  0.94829611  0.93463209  0.56161786    -0.14600
C1134       C  0.95987112  0.92804418  0.58873116    -0.12300
C1135       C  0.96564831  0.89935028  0.59666493     0.01000
C1136       C  0.95895231  0.87718092  0.57693159    -0.24500
H1137       H  0.90380987  0.97320566  0.47168297     0.09000
H1138       H  0.93128128  0.96565463  0.51480939     0.12600
H1139       H  0.89828976  0.88157966  0.45680870     0.11300
H1140       H  0.92140081  0.84830617  0.49029373     0.12500
H1141       H  0.94421477  0.83860050  0.53678819     0.11500
H1142       H  0.94433420  0.95718014  0.55736656     0.08600
H1143       H  0.96466142  0.94569079  0.60342039     0.11900
H1144       H  0.96329388  0.85487933  0.58265054     0.13700
C1145       C  0.75428692  0.05084088  0.46503180    -0.01800
C1146       C  0.72491783  0.05037665  0.47262703    -0.09800
C1147       C  0.71213856  0.07345373  0.48723294    -0.18600
C1148       C  0.72821535  0.09846987  0.49407944     0.03800
C1149       C  0.75855278  0.09801915  0.48853603     0.17900
C1150       C  0.77141558  0.07411725  0.47426793    -0.20100
C1151       C  0.77545897  0.12201767  0.49598630    -0.21300
C1152       C  0.76266273  0.14699053  0.50731226    -0.19900
C1153       C  0.73256641  0.14880030  0.51102356     0.19300
C1154       C  0.71498625  0.12432825  0.50486073     0.01500
C1155       C  0.68466433  0.12734247  0.50797410    -0.14600
C1156       C  0.67227298  0.15381061  0.51532875    -0.12300
C1157       C  0.68946608  0.17807442  0.52068736     0.01000
C1158       C  0.71972241  0.17528183  0.51948940    -0.24500
H1159       H  0.71143799  0.03223670  0.46645040     0.09000
H1160       H  0.68942654  0.07128410  0.49208897     0.12600
H1161       H  0.79424219  0.07449075  0.46871532     0.11300
H1162       H  0.79864323  0.12177976  0.49226729     0.12500
H1163       H  0.77629236  0.16541797  0.51212019     0.11500
H1164       H  0.66972294  0.11002094  0.50374177     0.08600
H1165       H  0.64887098  0.15543979  0.51645768     0.11900
H1166       H  0.73312530  0.19407663  0.52349534     0.13700
C1167       C  0.17466221  0.52813768  0.69476445    -0.01800
C1168       C  0.14995791  0.52606420  0.67757869    -0.09800
C1169       C  0.12329294  0.51949739  0.68977363    -0.18600
C1170       C  0.12062241  0.51397711  0.71976005     0.03800
C1171       C  0.14555515  0.51758659  0.73746389     0.17900
C1172       C  0.17235924  0.52496405  0.72485015    -0.20100
C1173       C  0.14375529  0.51256031  0.76733584    -0.21300
C1174       C  0.11816626  0.50244049  0.77972994    -0.19900
C1175       C  0.09390492  0.49677947  0.76248157     0.19300
C1176       C  0.09455485  0.50337293  0.73239107     0.01500
C1177       C  0.06965771  0.49727432  0.71578283    -0.14600
C1178       C  0.04644883  0.48250435  0.72777039    -0.12300
C1179       C  0.04676908  0.47397626  0.75682187     0.01000
C1180       C  0.06973233  0.48268781  0.77459921    -0.24500
H1181       H  0.15144911  0.52896685  0.65431627     0.09000
H1182       H  0.10546971  0.51808185  0.67487080     0.12600
H1183       H  0.19163329  0.52662042  0.73812121     0.11300
H1184       H  0.16252689  0.51557491  0.78105206     0.12500
H1185       H  0.11776053  0.49781764  0.80273633     0.11500
H1186       H  0.06784821  0.50228847  0.69310493     0.08600
H1187       H  0.02856824  0.47658763  0.71380152     0.11900
H1188       H  0.06993803  0.47632272  0.79719193     0.13700
C1189       C  0.78753111  0.15712959  0.85618986    -0.01800
C1190       C  0.79451023  0.17583619  0.87909413    -0.09800
C1191       C  0.80884942  0.20187661  0.87391552    -0.18600
C1192       C  0.81675201  0.21009408  0.84548263     0.03800
C1193       C  0.80898400  0.19135818  0.82230990     0.17900
C1194       C  0.79473186  0.16525047  0.82783549    -0.20100
C1195       C  0.81549944  0.19869550  0.79365744    -0.21300
C1196       C  0.83022223  0.22403105  0.78746973    -0.19900
C1197       C  0.83902840  0.24247371  0.80981770     0.19300
C1198       C  0.83227711  0.23599869  0.83915292     0.01500
C1199       C  0.84191763  0.25544316  0.86080565    -0.14600
C1200       C  0.85819845  0.27982130  0.85361528    -0.12300
C1201       C  0.86536317  0.28560640  0.82472493     0.01000
C1202       C  0.85518234  0.26707345  0.80293219    -0.24500
H1203       H  0.78875636  0.17044489  0.90119244     0.09000
H1204       H  0.81333883  0.21510864  0.89260872     0.12600
H1205       H  0.78912506  0.15126409  0.80981899     0.11300
H1206       H  0.80934241  0.18462628  0.77589931     0.12500
H1207       H  0.83518797  0.22899014  0.76505819     0.11500
H1208       H  0.83776488  0.25213224  0.88353118     0.08600
H1209       H  0.86585249  0.29375705  0.87085632     0.11900
H1210       H  0.86031696  0.27145575  0.78041957     0.13700
C1211       C  0.89431298  0.58970690  0.97148263    -0.01800
C1212       C  0.87143074  0.57058494  0.96572229    -0.09800
C1213       C  0.87668971  0.54317619  0.95383056    -0.18600
C1214       C  0.90518378  0.53395873  0.94719389     0.03800
C1215       C  0.92824353  0.55339550  0.95329627     0.17900
C1216       C  0.92265935  0.58073950  0.96525797    -0.20100
C1217       C  0.95688761  0.54565209  0.94715821    -0.21300
C1218       C  0.96318518  0.51938800  0.93407153    -0.19900
C1219       C  0.94099803  0.50019143  0.92686225     0.19300
C1220       C  0.91171146  0.50666994  0.93391901     0.01500
C1221       C  0.89038996  0.48594115  0.92640588    -0.14600
C1222       C  0.89767726  0.46124181  0.91017607    -0.12300
C1223       C  0.92635262  0.45644483  0.90135523     0.01000
C1224       C  0.94797267  0.47521787  0.91118829    -0.24500
H1225       H  0.84928166  0.57673146  0.97053911     0.09000
H1226       H  0.85803865  0.52977636  0.94988987     0.12600
H1227       H  0.94063528  0.59509995  0.96974332     0.11300
H1228       H  0.97454369  0.56028336  0.95198260     0.12500
H1229       H  0.98555856  0.51436718  0.92888243     0.11500
H1230       H  0.86782562  0.48879932  0.93177228     0.08600
H1231       H  0.88061129  0.44689757  0.90301010     0.11900
H1232       H  0.97033507  0.47133007  0.90496141     0.13700
C1233       C  0.71017952  0.32649543  0.63865655    -0.01800
C1234       C  0.71298612  0.35436093  0.65035016    -0.09800
C1235       C  0.73726221  0.36179747  0.66707706    -0.18600
C1236       C  0.75957189  0.34143078  0.67270229     0.03800
C1237       C  0.75597051  0.31299271  0.66163420     0.17900
C1238       C  0.73166933  0.30590550  0.64496059    -0.20100
C1239       C  0.77685306  0.29168277  0.66684819    -0.21300
C1240       C  0.80159874  0.29800272  0.68258741    -0.19900
C1241       C  0.80639209  0.32592924  0.69311337     0.19300
C1242       C  0.78546785  0.34810598  0.68848798     0.01500
C1243       C  0.79176968  0.37597484  0.69938557    -0.14600
C1244       C  0.81792258  0.38159809  0.71363648    -0.12300
C1245       C  0.83866759  0.35967868  0.71780423     0.01000
C1246       C  0.83236764  0.33178629  0.70779988    -0.24500
H1247       H  0.69677561  0.37071381  0.64593775     0.09000
H1248       H  0.73813041  0.38369704  0.67505774     0.12600
H1249       H  0.72982146  0.28412650  0.63641684     0.11300
H1250       H  0.77411536  0.26993056  0.65851808     0.12500
H1251       H  0.81737687  0.28099257  0.68611346     0.11500
H1252       H  0.77708651  0.39394119  0.69688559     0.08600
H1253       H  0.82188379  0.40335657  0.72136038     0.11900
H1254       H  0.84792660  0.31451692  0.71107508     0.13700
C1255       C  0.03876391  0.39837451  0.89770937    -0.01800
C1256       C  0.04946474  0.37445339  0.91310980    -0.09800
C1257       C  0.06212311  0.37777177  0.94054991    -0.18600
C1258       C  0.06451372  0.40531400  0.95376415     0.03800
C1259       C  0.05365527  0.42946724  0.93809926     0.17900
C1260       C  0.04116436  0.42584448  0.91051857    -0.20100
C1261       C  0.05516875  0.45724459  0.95006053    -0.21300
C1262       C  0.06779111  0.46176660  0.97697319    -0.19900
C1263       C  0.07937446  0.43865929  0.99266558     0.19300
C1264       C  0.07757195  0.40997989  0.98164930     0.01500
C1265       C  0.08949253  0.38753560  0.99882181    -0.14600
C1266       C  0.10406904  0.39363545  0.02483210    -0.12300
C1267       C  0.10722741  0.42219516  0.03455823     0.01000
C1268       C  0.09380416  0.44438787  0.01882039    -0.24500
H1269       H  0.04776246  0.35289073  0.90408577     0.09000
H1270       H  0.06973538  0.35837148  0.95096421     0.12600
H1271       H  0.03287674  0.44460482  0.89918123     0.11300
H1272       H  0.04673429  0.47571689  0.93837490     0.12500
H1273       H  0.06896020  0.48364638  0.98535776     0.11500
H1274       H  0.08865744  0.36517479  0.99225449     0.08600
H1275       H  0.11425851  0.37608329  0.03651190     0.11900
H1276       H  0.09575312  0.46655055  0.02630969     0.13700
C1277       C  0.96060541  0.60675468  0.08104682    -0.01800
C1278       C  0.97009673  0.60397017  0.10969919    -0.09800
C1279       C  0.99568186  0.58879163  0.11599130    -0.18600
C1280       C  0.01255759  0.57592120  0.09364584     0.03800
C1281       C  0.00142961  0.57692289  0.06499261     0.17900
C1282       C  0.97578590  0.59209774  0.05905551    -0.20100
C1283       C  0.01648604  0.56370068  0.04214460    -0.21300
C1284       C  0.04292501  0.55013694  0.04693023    -0.19900
C1285       C  0.05517555  0.54971244  0.07463764     0.19300
C1286       C  0.04018430  0.56251368  0.09845138     0.01500
C1287       C  0.05382906  0.56180399  0.12583505    -0.14600
C1288       C  0.08084166  0.54848900  0.12949337    -0.12300
C1289       C  0.09542496  0.53551971  0.10605979     0.01000
C1290       C  0.08238511  0.53648536  0.07860487    -0.24500
H1291       H  0.95865162  0.61491307  0.12708881     0.09000
H1292       H  0.00207678  0.58810301  0.13842055     0.12600
H1293       H  0.96827588  0.59363042  0.03685025     0.11300
H1294       H  0.00791778  0.56417112  0.02030026     0.12500
H1295       H  0.05408356  0.54026170  0.02871157     0.11500
H1296       H  0.04418778  0.57142476  0.14485647     0.08600
H1297       H  0.09026663  0.54822786  0.15095483     0.11900
H1298       H  0.09319440  0.52647329  0.06024211     0.13700
C1299       C  0.44298943  0.54083960  0.25730226    -0.01800
C1300       C  0.44385850  0.53323040  0.22796230    -0.09800
C1301       C  0.42122904  0.51808995  0.21530540    -0.18600
C1302       C  0.39647823  0.51047386  0.23159981     0.03800
C1303       C  0.39672338  0.51600307  0.26193238     0.17900
C1304       C  0.42002322  0.53106743  0.27459127    -0.20100
C1305       C  0.37324193  0.50737419  0.27910490    -0.21300
C1306       C  0.34908122  0.49431560  0.26662592    -0.19900
C1307       C  0.34742882  0.49034078  0.23656051     0.19300
C1308       C  0.37122831  0.49837521  0.21866562     0.01500
C1309       C  0.36817183  0.49548331  0.18836623    -0.14600
C1310       C  0.34238832  0.48589937  0.17632964    -0.12300
C1311       C  0.31881832  0.47844152  0.19383031     0.01000
C1312       C  0.32164610  0.47976945  0.22404434    -0.24500
H1313       H  0.46192968  0.53975447  0.21445708     0.09000
H1314       H  0.42363941  0.51310388  0.19261631     0.12600
H1315       H  0.41948654  0.53658729  0.29743846     0.11300
H1316       H  0.37336414  0.51115476  0.30229024     0.12500
H1317       H  0.33112138  0.48825434  0.28047846     0.11500
H1318       H  0.38478170  0.50166203  0.17319693     0.08600
H1319       H  0.34057485  0.48500925  0.15293008     0.11900
H1320       H  0.30326156  0.47437141  0.23763856     0.13700
C1321       C  0.23251001  0.56627810  0.05028881    -0.01800
C1322       C  0.22962982  0.56935312  0.02018859    -0.09800
C1323       C  0.24078286  0.59393199  0.00599248    -0.18600
C1324       C  0.25490488  0.61624949  0.02170093     0.03800
C1325       C  0.25631244  0.61328834  0.05234432     0.17900
C1326       C  0.24533832  0.58871047  0.06605066    -0.20100
C1327       C  0.26922065  0.63460821  0.06941889    -0.21300
C1328       C  0.28147288  0.65874865  0.05679096    -0.19900
C1329       C  0.28156355  0.66202091  0.02670539     0.19300
C1330       C  0.26815037  0.64112931  0.00850987     0.01500
C1331       C  0.26940524  0.64595478  0.97815196    -0.14600
C1332       C  0.28434598  0.66992198  0.96656846    -0.12300
C1333       C  0.29842463  0.68968240  0.98488773     0.01000
C1334       C  0.29599808  0.68582702  0.01489237    -0.24500
H1335       H  0.21976344  0.55229490  0.00751474     0.09000
H1336       H  0.23846323  0.59480230  0.98275840     0.12600
H1337       H  0.24728791  0.58678749  0.08939979     0.11300
H1338       H  0.27015507  0.63244814  0.09278583     0.12500
H1339       H  0.29159998  0.67470023  0.07069187     0.11500
H1340       H  0.25967045  0.63115639  0.96294354     0.08600
H1341       H  0.28577493  0.67238938  0.94328218     0.11900
H1342       H  0.30624704  0.70120538  0.02937060     0.13700
C1343       C  0.19245959  0.31964444  0.46746449    -0.01800
C1344       C  0.22267462  0.32221226  0.46804320    -0.09800
C1345       C  0.23569186  0.34695569  0.48008675    -0.18600
C1346       C  0.21864226  0.36960468  0.49216032     0.03800
C1347       C  0.18804984  0.36730662  0.48969329     0.17900
C1348       C  0.17549839  0.34292959  0.47698532    -0.20100
C1349       C  0.16984828  0.38855446  0.50136870    -0.21300
C1350       C  0.18123703  0.41162905  0.51669117    -0.19900
C1351       C  0.21114349  0.41425833  0.52037236     0.19300
C1352       C  0.23046001  0.39381082  0.50760921     0.01500
C1353       C  0.26053787  0.39824520  0.51163279    -0.14600
C1354       C  0.27078172  0.42139598  0.52845872    -0.12300
C1355       C  0.25142156  0.44058152  0.54199692     0.01000
C1356       C  0.22168318  0.43705547  0.53734822    -0.24500
H1357       H  0.23619677  0.30442872  0.46079644     0.09000
H1358       H  0.25902695  0.34722332  0.48082749     0.12600
H1359       H  0.15206991  0.34121157  0.47618786     0.11300
H1360       H  0.14651870  0.38682875  0.49944323     0.12500
H1361       H  0.16647355  0.42729207  0.52617541     0.11500
H1362       H  0.27657837  0.38401651  0.50227701     0.08600
H1363       H  0.29389665  0.42381476  0.53153574     0.11900
H1364       H  0.20651097  0.45211394  0.54721275     0.13700
C1365       C  0.04030375  0.24631742  0.55081143    -0.01800
C1366       C  0.02815841  0.22867274  0.57222348    -0.09800
C1367       C  0.01443296  0.24095011  0.59655405    -0.18600
C1368       C  0.01233017  0.27137274  0.59998524     0.03800
C1369       C  0.02319852  0.28890924  0.57718381     0.17900
C1370       C  0.03681703  0.27635641  0.55310763    -0.20100
C1371       C  0.02122755  0.31903319  0.57877378    -0.21300
C1372       C  0.00947945  0.33236662  0.60302509    -0.19900
C1373       C  0.99959832  0.31592793  0.62638534     0.19300
C1374       C  0.00042323  0.28519269  0.62523158     0.01500
C1375       C  0.98988910  0.26991560  0.64965872    -0.14600
C1376       C  0.97964266  0.28465914  0.67430898    -0.12300
C1377       C  0.97988171  0.31494580  0.67543970     0.01000
C1378       C  0.98948274  0.33029798  0.65118541    -0.24500
H1379       H  0.03041807  0.20540254  0.57083294     0.09000
H1380       H  0.00621186  0.22617045  0.61258843     0.12600
H1381       H  0.04562301  0.29024353  0.53636519     0.11300
H1382       H  0.02926978  0.33243660  0.56129698     0.12500
H1383       H  0.00863275  0.35577865  0.60374189     0.11500
H1384       H  0.98976868  0.24663203  0.65049988     0.08600
H1385       H  0.97241569  0.27233938  0.69288625     0.11900
H1386       H  0.98943931  0.35374758  0.65176496     0.13700
C1387       C  0.03261695  0.10706878  0.42259174    -0.01800
C1388       C  0.02151741  0.10617116  0.39444387    -0.09800
C1389       C  0.99560902  0.09166642  0.38855829    -0.18600
C1390       C  0.98012168  0.07726608  0.41078990     0.03800
C1391       C  0.99234124  0.07717615  0.43903955     0.17900
C1392       C  0.01814612  0.09214293  0.44467702    -0.20100
C1393       C  0.97839157  0.06275513  0.46172273    -0.21300
C1394       C  0.95204530  0.04902852  0.45722427    -0.19900
C1395       C  0.93888642  0.04947777  0.42995949     0.19300
C1396       C  0.95285199  0.06329265  0.40622196     0.01500
C1397       C  0.93877428  0.06262729  0.37906793    -0.14600
C1398       C  0.91206550  0.04889865  0.37569901    -0.12300
C1399       C  0.89818263  0.03556687  0.39922234     0.01000
C1400       C  0.91183380  0.03602875  0.42633420    -0.24500
H1401       H  0.03210764  0.11801705  0.37720404     0.09000
H1402       H  0.98799389  0.09262035  0.36653842     0.12600
H1403       H  0.02663060  0.09289176  0.46657102     0.11300
H1404       H  0.98779304  0.06233843  0.48321515     0.12500
H1405       H  0.94174163  0.03819899  0.47530564     0.11500
H1406       H  0.94786901  0.07242248  0.35995928     0.08600
H1407       H  0.90228002  0.04870097  0.35439541     0.11900
H1408       H  0.90164414  0.02545104  0.44463762     0.13700
C1409       C  0.14426777  0.27734687  0.33427754    -0.01800
C1410       C  0.17316139  0.27814894  0.32483654    -0.09800
C1411       C  0.18056065  0.28957376  0.29794328    -0.18600
C1412       C  0.15925327  0.30104909  0.27931579     0.03800
C1413       C  0.12985888  0.29988658  0.28857800     0.17900
C1414       C  0.12261495  0.28794521  0.31573381    -0.20100
C1415       C  0.10798138  0.31120336  0.27092604    -0.21300
C1416       C  0.11477989  0.32479372  0.24490766    -0.19900
C1417       C  0.14360917  0.32731215  0.23580857     0.19300
C1418       C  0.16621523  0.31471831  0.25244606     0.01500
C1419       C  0.19494491  0.31753866  0.24208952    -0.14600
C1420       C  0.20114097  0.33462695  0.21802807    -0.12300
C1421       C  0.17894455  0.34864353  0.20291465     0.01000
C1422       C  0.15011941  0.34371410  0.21101140    -0.24500
H1423       H  0.19040948  0.26972358  0.33827208     0.09000
H1424       H  0.20327979  0.28941864  0.29262074     0.12600
H1425       H  0.10013468  0.28725121  0.32253720     0.11300
H1426       H  0.08549880  0.31021491  0.27764929     0.12500
H1427       H  0.09741451  0.33411907  0.23220958     0.11500
H1428       H  0.21325467  0.30775691  0.25267121     0.08600
H1429       H  0.22356032  0.33770839  0.21177575     0.11900
H1430       H  0.13284750  0.35448227  0.19933985     0.13700
C1431       C  0.10135099  0.09698765  0.53230722    -0.01800
C1432       C  0.07311794  0.08613839  0.53513248    -0.09800
C1433       C  0.06784852  0.05957053  0.54863126    -0.18600
C1434       C  0.09074116  0.04273749  0.56012159     0.03800
C1435       C  0.11926298  0.05396818  0.55784756     0.17900
C1436       C  0.12433418  0.08053996  0.54374546    -0.20100
C1437       C  0.14253347  0.03879624  0.57004870    -0.21300
C1438       C  0.13800409  0.01317367  0.58524192    -0.19900
C1439       C  0.11018408  0.00146910  0.58791204     0.19300
C1440       C  0.08629233  0.01564628  0.57454214     0.01500
C1441       C  0.05892476  0.00221690  0.57646574    -0.14600
C1442       C  0.05500446  0.97723675  0.59289424    -0.12300
C1443       C  0.07811386  0.96436528  0.60779152     0.01000
C1444       C  0.10593708  0.97608402  0.60444408    -0.24500
H1445       H  0.05486516  0.09811673  0.52659964     0.09000
H1446       H  0.04551752  0.05301383  0.55014825     0.12600
H1447       H  0.14631492  0.08852489  0.54192686     0.11300
H1448       H  0.16437598  0.04716413  0.56840200     0.12500
H1449       H  0.15641751  0.00248324  0.59506762     0.11500
H1450       H  0.04001058  0.01069628  0.56578575     0.08600
H1451       H  0.03339171  0.96829571  0.59462132     0.11900
H1452       H  0.12398512  0.96632622  0.61581536     0.13700
C1453       C  0.40571492  0.90362116  0.02993598    -0.01800
C1454       C  0.43451774  0.91223090  0.03448878    -0.09800
C1455       C  0.44097669  0.93907048  0.04701744    -0.18600
C1456       C  0.41871964  0.95838575  0.05564776     0.03800
C1457       C  0.38961172  0.94906429  0.05226627     0.17900
C1458       C  0.38341857  0.92217596  0.03932955    -0.20100
C1459       C  0.36674703  0.96662025  0.06184974    -0.21300
C1460       C  0.37209632  0.99318608  0.07493745    -0.19900
C1461       C  0.40043275  0.00323750  0.07826189     0.19300
C1462       C  0.42418352  0.98627584  0.06810464     0.01500
C1463       C  0.45230035  0.99789512  0.07119063    -0.14600
C1464       C  0.45671146  0.02390512  0.08598536    -0.12300
C1465       C  0.43334912  0.03942956  0.09790326     0.01000
C1466       C  0.40517376  0.02962994  0.09278232    -0.24500
H1467       H  0.45229826  0.89835271  0.02791448     0.09000
H1468       H  0.46359846  0.94402553  0.04981825     0.12600
H1469       H  0.36103308  0.91583372  0.03636442     0.11300
H1470       H  0.34450373  0.95957076  0.05955304     0.12500
H1471       H  0.35389186  0.00592362  0.08263981     0.11500
H1472       H  0.47134785  0.98705116  0.06302221     0.08600
H1473       H  0.47872579  0.03126700  0.08930977     0.11900
H1474       H  0.38699912  0.04142803  0.10196863     0.13700
C1475       C  0.20707407  0.16958182  0.35008122    -0.01800
C1476       C  0.21527057  0.14066158  0.34639467    -0.09800
C1477       C  0.24077662  0.13352089  0.33145861    -0.18600
C1478       C  0.25898511  0.15527641  0.31987850     0.03800
C1479       C  0.24938860  0.18441078  0.32194453     0.17900
C1480       C  0.22367775  0.19119752  0.33673143    -0.20100
C1481       C  0.26605031  0.20679976  0.31027735    -0.21300
C1482       C  0.29255831  0.20099444  0.29719790    -0.19900
C1483       C  0.30315433  0.17268425  0.29565399     0.19300
C1484       C  0.28654513  0.14935913  0.30687222     0.01500
C1485       C  0.29857198  0.12127140  0.30512498    -0.14600
C1486       C  0.32561527  0.11653420  0.29232281    -0.12300
C1487       C  0.34167072  0.13953232  0.28088073     0.01000
C1488       C  0.33034083  0.16761633  0.28290972    -0.24500
H1489       H  0.20280225  0.12358892  0.35644232     0.09000
H1490       H  0.24603247  0.11085921  0.33002932     0.12600
H1491       H  0.21724994  0.21366281  0.33905033     0.11300
H1492       H  0.25871533  0.22903995  0.31165884     0.12500
H1493       H  0.30504762  0.21884100  0.28858383     0.11500
H1494       H  0.28766057  0.10250238  0.31350443     0.08600
H1495       H  0.33388807  0.09462630  0.29123725     0.11900
H1496       H  0.34245489  0.18562644  0.27407424     0.13700
C1497       C  0.35939071  0.21055457  0.16934918    -0.01800
C1498       C  0.34467752  0.22484099  0.19187723    -0.09800
C1499       C  0.32840371  0.24971430  0.18674495    -0.18600
C1500       C  0.32646647  0.26169784  0.15868906     0.03800
C1501       C  0.34033109  0.24658608  0.13556363     0.17900
C1502       C  0.35638985  0.22109047  0.14099809    -0.20100
C1503       C  0.33889887  0.25762216  0.10735947    -0.21300
C1504       C  0.32499071  0.28382856  0.10180563    -0.19900
C1505       C  0.31197834  0.29970083  0.12426887     0.19300
C1506       C  0.31204068  0.28854339  0.15295319     0.01500
C1507       C  0.29815229  0.30505407  0.17478225    -0.14600
C1508       C  0.28557116  0.33177330  0.16862011    -0.12300
C1509       C  0.28598227  0.34316950  0.14047918     0.01000
C1510       C  0.29904481  0.32675344  0.11828613    -0.24500
H1511       H  0.34630240  0.21708308  0.21395374     0.09000
H1512       H  0.31826623  0.25942922  0.20543378     0.12600
H1513       H  0.36778037  0.21036315  0.12341346     0.11300
H1514       H  0.34913149  0.24619080  0.08952368     0.12500
H1515       H  0.32475255  0.29193385  0.07979934     0.11500
H1516       H  0.29661490  0.29800703  0.19694698     0.08600
H1517       H  0.27510681  0.34343822  0.18615439     0.11900
H1518       H  0.29930526  0.33507140  0.09635071     0.13700
C1519       C  0.54405991  0.10367172  0.10135304    -0.01800
C1520       C  0.55919371  0.12640383  0.08817455    -0.09800
C1521       C  0.57244425  0.12267075  0.06109308    -0.18600
C1522       C  0.57076165  0.09597992  0.04614973     0.03800
C1523       C  0.55653516  0.07267825  0.06026549     0.17900
C1524       C  0.54330359  0.07674274  0.08737392    -0.20100
C1525       C  0.55539311  0.04539438  0.04720058    -0.21300
C1526       C  0.56845601  0.04055677  0.02049999    -0.19900
C1527       C  0.58210802  0.06312865  0.00573957     0.19300
C1528       C  0.58288300  0.09136995  0.01792089     0.01500
C1529       C  0.59558323  0.11364527  0.00117498    -0.14600
C1530       C  0.60851909  0.10766091  0.97429541    -0.12300
C1531       C  0.60937339  0.07936938  0.96344734     0.01000
C1532       C  0.59546103  0.05740286  0.97901248    -0.24500
H1533       H  0.56050603  0.14733212  0.09866837     0.09000
H1534       H  0.58387733  0.14100873  0.05240545     0.12600
H1535       H  0.53170225  0.05894181  0.09725662     0.11300
H1536       H  0.54460853  0.02755169  0.05787934     0.12500
H1537       H  0.56769227  0.01901967  0.01122060     0.11500
H1538       H  0.59606831  0.13581286  0.00841858     0.08600
H1539       H  0.61924223  0.12495531  0.96272353     0.11900
H1540       H  0.59580927  0.03545687  0.97064974     0.13700
C1541       C  0.47358713  0.19066664  0.31881253    -0.01800
C1542       C  0.47343974  0.17607120  0.34522940    -0.09800
C1543       C  0.48298101  0.18961832  0.37042004    -0.18600
C1544       C  0.49366750  0.21826553  0.36984200     0.03800
C1545       C  0.49266085  0.23342528  0.34308503     0.17900
C1546       C  0.48250634  0.21956454  0.31785165    -0.20100
C1547       C  0.50259882  0.26197067  0.34157978    -0.21300
C1548       C  0.51425495  0.27555808  0.36590510    -0.19900
C1549       C  0.51674280  0.26079230  0.39226635     0.19300
C1550       C  0.50615205  0.23199968  0.39461521     0.01500
C1551       C  0.50964510  0.21768220  0.42136554    -0.14600
C1552       C  0.52436081  0.23067986  0.44418269    -0.12300
C1553       C  0.53564672  0.25858344  0.44164679     0.01000
C1554       C  0.53095601  0.27403808  0.41594086    -0.24500
H1555       H  0.46648853  0.15373041  0.34623785     0.09000
H1556       H  0.48222680  0.17678786  0.38982382     0.12600
H1557       H  0.48291608  0.23073339  0.29722420     0.11300
H1558       H  0.50174709  0.27374098  0.32132705     0.12500
H1559       H  0.52212121  0.29750886  0.36386118     0.11500
H1560       H  0.50225223  0.19596906  0.42514126     0.08600
H1561       H  0.52773343  0.21839918  0.46386007     0.11900
H1562       H  0.53996525  0.29553912  0.41371609     0.13700
C1563       C  0.67831144  0.97229903  0.30935418    -0.01800
C1564       C  0.67779215  0.97325205  0.27901743    -0.09800
C1565       C  0.65322937  0.98362668  0.26436497    -0.18600
C1566       C  0.62836966  0.99320276  0.27980710     0.03800
C1567       C  0.62874451  0.99059571  0.31052562     0.17900
C1568       C  0.65340999  0.98027536  0.32479432    -0.20100
C1569       C  0.60486245  0.99922257  0.32711489    -0.21300
C1570       C  0.58073166  0.01123071  0.31401732    -0.19900
C1571       C  0.57994527  0.01514982  0.28401176     0.19300
C1572       C  0.60349037  0.00598417  0.26625634     0.01500
C1573       C  0.60129870  0.01099139  0.23601733    -0.14600
C1574       C  0.57729879  0.02559374  0.22428062    -0.12300
C1575       C  0.55487326  0.03554512  0.24228959     0.01000
C1576       C  0.55605136  0.02933875  0.27194085    -0.24500
H1577       H  0.69686904  0.96722421  0.26667001     0.09000
H1578       H  0.65450241  0.98450361  0.24105346     0.12600
H1579       H  0.65356815  0.97924887  0.34828640     0.11300
H1580       H  0.60505201  0.99716420  0.35050822     0.12500
H1581       H  0.56280617  0.01819187  0.32758460     0.11500
H1582       H  0.61818407  0.00465874  0.22109719     0.08600
H1583       H  0.57693290  0.03027010  0.20130093     0.11900
H1584       H  0.53863037  0.03666361  0.28600764     0.13700
loop_ 
_geom_bond_atom_site_label_1 
_geom_bond_atom_site_label_2 
_geom_bond_distance 
_geom_bond_site_symmetry_2 
_ccdc_geom_bond_type 
Zr1           O2   2.439       .  S
Zr1           O3   2.424       .  S
Zr1           O4   2.417       .  S
Zr1           O7   2.436       .  S
Zr1           O9   2.384       .  S
Zr1          O10   2.378       .  S
Zr1          O11   2.406       .  S
Zr1          O12   2.395       .  S
O2           H58   0.991       .  S
O2           H66   0.990       .  S
O3           C23   1.283       .  A
O4           C25   1.283       .  A
O5          Zr15   2.419       .  S
O5           C24   1.282       .  A
O6          Zr14   2.472       .  S
O6           C25   1.292       .  A
O7           C24   1.284       .  A
O8          Zr16   2.423       .  S
O8           C23   1.282       .  A
O9          Zr14   2.397       .  S
O9          Zr16   2.377       .  S
O10         Zr15   2.388       .  S
O10         Zr16   2.369       .  S
O10          H45   0.966       .  S
O11         Zr14   2.406       .  S
O11         Zr31   2.393       .  S
O11          H48   0.966       .  S
O12         Zr15   2.388       .  S
O12         Zr31   2.397       .  S
Zr13         O38   2.442       .  S
Zr13         O32   2.432       .  S
Zr13         O40   2.453       .  S
Zr13         O28   2.408       .  S
Zr13         O19   2.400       .  S
Zr13         O20   2.415       .  S
Zr13         O21   2.383       .  S
Zr13         O22   2.375       .  S
Zr14         O33   2.434       .  S
Zr14         O26   2.435       .  S
Zr14         O27   2.467       .  S
Zr14         O20   2.411       .  S
Zr14         O21   2.390       .  S
Zr15         O17   2.434       .  S
Zr15         O39   2.437       .  S
Zr15         O41   2.417       .  S
Zr15         O19   2.387       .  S
Zr15         O22   2.389       .  S
Zr16         O42   2.437       .  S
Zr16         O43   2.437       .  S
Zr16         O18   2.437       .  S
Zr16         O19   2.399       .  S
Zr16         O20   2.391       .  S
O17          H54   0.990       .  S
O18          H49   0.990       .  S
O18          H63   0.990       .  S
O20          H46   0.965       .  S
O21         Zr31   2.373       .  S
O22         Zr31   2.379       .  S
O22          H47   0.966       .  S
C23        C1487   1.482       .  S
C24        C1541   1.468       .  S
C25        C1497   1.489       .  S
O26          H62   0.990       .  S
O27          C29   1.292       .  A
O28          C29   1.280       .  A
C29        C1465   1.481       .  S
O30         Zr31   2.436       .  S
O30          H59   0.990       .  S
Zr31         O34   2.436       .  S
Zr31         O35   2.436       .  S
Zr31         O36   2.425       .  S
O32          C37   1.285       .  A
O33          H50   0.990       .  S
O33          H65   0.990       .  S
O34          H51   0.989       .  S
O35          H55   0.990       .  S
O35          H64   0.990       .  S
O36          C37   1.283       .  A
C37        C1519   1.484       .  S
O38          H57   0.990       .  S
O38          H61   0.991       .  S
O39          H53   0.990       .  S
O39          H60   0.990       .  S
O40          C44   1.288       .  A
O41          C44   1.283       .  A
O42          H52   0.990       .  S
O43          H56   0.990       .  S
C44        C1575   1.484       .  S
Zr67         O68   2.439       .  S
Zr67         O69   2.455       .  S
Zr67         O70   2.409       .  S
Zr67         O73   2.459       .  S
Zr67         O75   2.380       .  S
Zr67         O76   2.373       .  S
Zr67         O77   2.424       .  S
Zr67         O78   2.404       .  S
O68         H124   0.990       .  S
O68         H132   0.990       .  S
O69          C89   1.289       .  A
O70          C91   1.280       .  A
O71         Zr81   2.401       .  S
O71          C90   1.280       .  A
O72         Zr80   2.464       .  S
O72          C91   1.290       .  A
O73          C90   1.289       .  A
O74         Zr82   2.436       .  S
O74          C89   1.285       .  A
O75         Zr80   2.394       .  S
O75         Zr82   2.373       .  S
O76         Zr81   2.394       .  S
O76         Zr82   2.379       .  S
O76         H111   0.966       .  S
O77         Zr80   2.410       .  S
O77         Zr97   2.396       .  S
O77         H114   0.965       .  S
O78         Zr81   2.383       .  S
O78         Zr97   2.404       .  S
Zr79        O104   2.439       .  S
Zr79         O98   2.425       .  S
Zr79        O106   2.456       .  S
Zr79         O94   2.407       .  S
Zr79         O85   2.393       .  S
Zr79         O86   2.411       .  S
Zr79         O87   2.387       .  S
Zr79         O88   2.370       .  S
Zr80         O99   2.437       .  S
Zr80         O92   2.434       .  S
Zr80         O93   2.469       .  S
Zr80         O86   2.407       .  S
Zr80         O87   2.389       .  S
Zr81         O83   2.436       .  S
Zr81        O105   2.434       .  S
Zr81        O107   2.413       .  S
Zr81         O85   2.378       .  S
Zr81         O88   2.380       .  S
Zr82        O108   2.437       .  S
Zr82        O109   2.437       .  S
Zr82         O84   2.438       .  S
Zr82         O85   2.405       .  S
Zr82         O86   2.397       .  S
O83         H120   0.990       .  S
O84         H115   0.990       .  S
O84         H129   0.990       .  S
O86         H112   0.966       .  S
O87         Zr97   2.373       .  S
O88         Zr97   2.368       .  S
O88         H113   0.965       .  S
C89        C1431   1.499       .  S
C90        C1365   1.483       .  S
C91        C1387   1.476       .  S
O92         H128   0.990       .  S
O93          C95   1.292       .  A
O94          C95   1.281       .  A
C95        C1475   1.483       .  S
O96         Zr97   2.440       .  S
O96         H125   0.990       .  S
Zr97        O100   2.439       .  S
Zr97        O101   2.442       .  S
Zr97        O102   2.444       .  S
O98         C103   1.285       .  A
O99         H116   0.990       .  S
O99         H131   0.990       .  S
O100        H117   0.990       .  S
O101        H121   0.990       .  S
O101        H130   0.990       .  S
O102        C103   1.286       .  A
C103       C1409   1.489       .  S
O104        H123   0.990       .  S
O104        H127   0.990       .  S
O105        H119   0.990       .  S
O105        H126   0.990       .  S
O106        C110   1.288       .  A
O107        C110   1.282       .  A
O108        H118   0.990       .  S
O109        H122   0.990       .  S
C110       C1343   1.480       .  S
Zr133       O134   2.439       .  S
Zr133       O135   2.429       .  S
Zr133       O136   2.415       .  S
Zr133       O139   2.451       .  S
Zr133       O141   2.385       .  S
Zr133       O142   2.376       .  S
Zr133       O143   2.414       .  S
Zr133       O144   2.400       .  S
O134        H190   0.991       .  S
O134        H198   0.990       .  S
O135        C155   1.285       .  A
O136        C157   1.282       .  A
O137       Zr147   2.414       .  S
O137        C156   1.282       .  A
O138       Zr146   2.452       .  S
O138        C157   1.288       .  A
O139        C156   1.287       .  A
O140       Zr148   2.449       .  S
O140        C155   1.287       .  A
O141       Zr146   2.390       .  S
O141       Zr148   2.369       .  S
O142       Zr147   2.389       .  S
O142       Zr148   2.369       .  S
O142        H177   0.966       .  S
O143       Zr146   2.406       .  S
O143       Zr163   2.395       .  S
O143        H180   0.966       .  S
O144       Zr147   2.382       .  S
O144       Zr163   2.400       .  S
Zr145       O170   2.437       .  S
Zr145       O164   2.444       .  S
Zr145       O172   2.464       .  S
Zr145       O160   2.428       .  S
Zr145       O151   2.405       .  S
Zr145       O152   2.417       .  S
Zr145       O153   2.383       .  S
Zr145       O154   2.378       .  S
Zr146       O165   2.434       .  S
Zr146       O158   2.437       .  S
Zr146       O159   2.461       .  S
Zr146       O152   2.408       .  S
Zr146       O153   2.395       .  S
Zr147       O149   2.435       .  S
Zr147       O171   2.438       .  S
Zr147       O173   2.409       .  S
Zr147       O151   2.386       .  S
Zr147       O154   2.392       .  S
Zr148       O174   2.438       .  S
Zr148       O175   2.434       .  S
Zr148       O150   2.435       .  S
Zr148       O151   2.407       .  S
Zr148       O152   2.397       .  S
O149        H186   0.990       .  S
O150        H181   0.990       .  S
O150        H195   0.990       .  S
O152        H178   0.965       .  S
O153       Zr163   2.378       .  S
O154       Zr163   2.375       .  S
O154        H179   0.966       .  S
C155       C1509   1.492       .  S
C156       C1311   1.474       .  S
C157       C1421   1.477       .  S
O158        H194   0.990       .  S
O159        C161   1.290       .  A
O160        C161   1.284       .  A
C161       C1267   1.489       .  S
O162       Zr163   2.438       .  S
O162        H191   0.990       .  S
Zr163       O166   2.437       .  S
Zr163       O167   2.438       .  S
Zr163       O168   2.434       .  S
O164        C169   1.287       .  A
O165        H182   0.990       .  S
O165        H197   0.990       .  S
O166        H183   0.990       .  S
O167        H187   0.990       .  S
O167        H196   0.990       .  S
O168        C169   1.285       .  A
C169       C1289   1.494       .  S
O170        H189   0.990       .  S
O170        H193   0.990       .  S
O171        H185   0.990       .  S
O171        H192   0.990       .  S
O172        C176   1.289       .  A
O173        C176   1.282       .  A
O174        H184   0.990       .  S
O175        H188   0.990       .  S
C176       C1321   1.487       .  S
Zr199       O200   2.441       .  S
Zr199       O201   2.447   1_655  S
Zr199       O202   2.412       .  S
Zr199       O205   2.436   1_655  S
Zr199       O207   2.377       .  S
Zr199       O208   2.385   1_655  S
Zr199       O209   2.408       .  S
Zr199       O210   2.404       .  S
O200        H256   0.990       .  S
O200        H264   0.990       .  S
O201        C221   1.288       .  A
O202        C223   1.283       .  A
O203       Zr213   2.413   1_455  S
O203        C222   1.282       .  A
O204       Zr212   2.457       .  S
O204        C223   1.289       .  A
O205        C222   1.285       .  A
O206       Zr214   2.447   1_455  S
O206        C221   1.287       .  A
O207       Zr212   2.388       .  S
O207       Zr214   2.374       .  S
O208       Zr213   2.398   1_455  S
O208       Zr214   2.375   1_455  S
O208        H243   0.966       .  S
O209       Zr212   2.401       .  S
O209       Zr229   2.384       .  S
O209        H246   0.965       .  S
O210       Zr213   2.381       .  S
O210       Zr229   2.397       .  S
Zr211       O236   2.443       .  S
Zr211       O230   2.453       .  S
Zr211       O238   2.450       .  S
Zr211       O226   2.405       .  S
Zr211       O217   2.401       .  S
Zr211       O218   2.411       .  S
Zr211       O219   2.383       .  S
Zr211       O220   2.377       .  S
Zr212       O231   2.436       .  S
Zr212       O224   2.435       .  S
Zr212       O225   2.444       .  S
Zr212       O218   2.404       .  S
Zr212       O219   2.394       .  S
Zr213       O215   2.435       .  S
Zr213       O237   2.437   1_655  S
Zr213       O239   2.418       .  S
Zr213       O217   2.388       .  S
Zr213       O220   2.385       .  S
Zr214       O240   2.436   1_655  S
Zr214       O241   2.435   1_655  S
Zr214       O216   2.438       .  S
Zr214       O217   2.402       .  S
Zr214       O218   2.396       .  S
O215        H252   0.990       .  S
O216        H247   0.990   1_655  S
O216        H261   0.990       .  S
O218        H244   0.966       .  S
O219       Zr229   2.373       .  S
O220       Zr229   2.379       .  S
O220        H245   0.966       .  S
C221       C1255   1.498       .  S
C222       C1179   1.473       .  S
C223       C1223   1.480       .  S
O224        H260   0.990       .  S
O225        C227   1.287       .  A
O226        C227   1.281       .  A
C227       C1201   1.478       .  S
O228       Zr229   2.435       .  S
O228        H257   0.990       .  S
Zr229       O232   2.436       .  S
Zr229       O233   2.438       .  S
Zr229       O234   2.417       .  S
O230        C235   1.289       .  A
O231        H248   0.990       .  S
O231        H263   0.990       .  S
O232        H249   0.990       .  S
O233        H253   0.990       .  S
O233        H262   0.990       .  S
O234        C235   1.281       .  A
C235       C1245   1.492       .  S
O236        H255   0.990       .  S
O236        H259   0.990       .  S
O237        H251   0.990       .  S
O237        H258   0.990       .  S
O238        C242   1.286       .  A
O239        C242   1.283       .  A
O240        H250   0.990       .  S
O241        H254   0.990   1_455  S
C242       C1377   1.482       .  S
Zr265       O266   2.440       .  S
Zr265       O267   2.418       .  S
Zr265       O268   2.418       .  S
Zr265       O271   2.455       .  S
Zr265       O273   2.389       .  S
Zr265       O274   2.377       .  S
Zr265       O275   2.410       .  S
Zr265       O276   2.398       .  S
O266        H322   0.991       .  S
O266        H330   0.990       .  S
O267        C287   1.282       .  A
O268        C289   1.282       .  A
O269       Zr279   2.414       .  S
O269        C288   1.282       .  A
O270       Zr278   2.470       .  S
O270        C289   1.292       .  A
O271        C288   1.288       .  A
O272       Zr280   2.428       .  S
O272        C287   1.282       .  A
O273       Zr278   2.397       .  S
O273       Zr280   2.377       .  S
O274       Zr279   2.392       .  S
O274       Zr280   2.372       .  S
O274        H309   0.966       .  S
O275       Zr278   2.409       .  S
O275       Zr295   2.387       .  S
O275        H312   0.965       .  S
O276       Zr279   2.390       .  S
O276       Zr295   2.399       .  S
Zr277       O302   2.440       .  S
Zr277       O296   2.443   1_565  S
Zr277       O304   2.456   1_565  S
Zr277       O292   2.402       .  S
Zr277       O283   2.401       .  S
Zr277       O284   2.418       .  S
Zr277       O285   2.384       .  S
Zr277       O286   2.373   1_565  S
Zr278       O297   2.438       .  S
Zr278       O290   2.434       .  S
Zr278       O291   2.469       .  S
Zr278       O284   2.406       .  S
Zr278       O285   2.390       .  S
Zr279       O281   2.437   1_565  S
Zr279       O303   2.437       .  S
Zr279       O305   2.413   1_565  S
Zr279       O283   2.386       .  S
Zr279       O286   2.389   1_565  S
Zr280       O306   2.435       .  S
Zr280       O307   2.437       .  S
Zr280       O282   2.437       .  S
Zr280       O283   2.402       .  S
Zr280       O284   2.393       .  S
O281        H318   0.990       .  S
O282        H313   0.991       .  S
O282        H327   0.990       .  S
O284        H310   0.965       .  S
O285       Zr295   2.371       .  S
O286       Zr295   2.373   1_545  S
O286        H311   0.966       .  S
C287       C1079   1.482       .  S
C288       C1563   1.481       .  S
C289       C1101   1.489       .  S
O290        H326   0.990       .  S
O291        C293   1.291       .  A
O292        C293   1.280       .  A
C293       C1123   1.480       .  S
O294       Zr295   2.435       .  S
O294        H323   0.990       .  S
Zr295       O298   2.434       .  S
Zr295       O299   2.436   1_565  S
Zr295       O300   2.422   1_565  S
O296        C301   1.287       .  A
O297        H314   0.990       .  S
O297        H329   0.990       .  S
O298        H315   0.990       .  S
O299        H319   0.990       .  S
O299        H328   0.990       .  S
O300        C301   1.283       .  A
C301       C1399   1.488       .  S
O302        H321   0.990       .  S
O302        H325   0.990       .  S
O303        H317   0.990   1_565  S
O303        H324   0.990       .  S
O304        C308   1.288       .  A
O305        C308   1.282       .  A
O306        H316   0.990       .  S
O307        H320   0.990       .  S
C308       C1145   1.480       .  S
Zr331       O332   2.440       .  S
Zr331       O333   2.440       .  S
Zr331       O334   2.396       .  S
Zr331       O337   2.442       .  S
Zr331       O339   2.378       .  S
Zr331       O340   2.374       .  S
Zr331       O341   2.417       .  S
Zr331       O342   2.401       .  S
O332        H388   0.991       .  S
O332        H396   0.990       .  S
O333        C353   1.286       .  A
O334        C355   1.278       .  A
O335       Zr345   2.435       .  S
O335        C354   1.285       .  A
O336       Zr344   2.456       .  S
O336        C355   1.289       .  A
O337        C354   1.285       .  A
O338       Zr346   2.422       .  S
O338        C353   1.282       .  A
O339       Zr344   2.393       .  S
O339       Zr346   2.369       .  S
O340       Zr345   2.392       .  S
O340       Zr346   2.379       .  S
O340        H375   0.966       .  S
O341       Zr344   2.413       .  S
O341       Zr361   2.399       .  S
O341        H378   0.966       .  S
O342       Zr345   2.384       .  S
O342       Zr361   2.404       .  S
Zr343       O368   2.439       .  S
Zr343       O362   2.425   1_455  S
Zr343       O370   2.435   1_455  S
Zr343       O358   2.417       .  S
Zr343       O349   2.396       .  S
Zr343       O350   2.405       .  S
Zr343       O351   2.378       .  S
Zr343       O352   2.383   1_455  S
Zr344       O363   2.436       .  S
Zr344       O356   2.433       .  S
Zr344       O357   2.473       .  S
Zr344       O350   2.405       .  S
Zr344       O351   2.393       .  S
Zr345       O347   2.438   1_455  S
Zr345       O369   2.438   1_455  S
Zr345       O371   2.417   1_455  S
Zr345       O349   2.387       .  S
Zr345       O352   2.395   1_455  S
Zr346       O372   2.436       .  S
Zr346       O373   2.435       .  S
Zr346       O348   2.436       .  S
Zr346       O349   2.391       .  S
Zr346       O350   2.391       .  S
O347        H384   0.990       .  S
O348        H379   0.990       .  S
O348        H393   0.990       .  S
O350        H376   0.965       .  S
O351       Zr361   2.375       .  S
O352       Zr361   2.379   1_655  S
O352        H377   0.966       .  S
C353       C1057   1.488       .  S
C354       C1003   1.481       .  S
C355       C1035   1.475       .  S
O356        H392   0.990       .  S
O357        C359   1.292       .  A
O358        C359   1.282       .  A
C359       C1443   1.488       .  S
O360       Zr361   2.441       .  S
O360        H389   0.991   1_455  S
Zr361       O364   2.437       .  S
Zr361       O365   2.440   1_455  S
Zr361       O366   2.437   1_455  S
O362        C367   1.283       .  A
O363        H380   0.990       .  S
O363        H395   0.990       .  S
O364        H381   0.990       .  S
O365        H385   0.990       .  S
O365        H394   0.990       .  S
O366        C367   1.285       .  A
C367       C1135   1.489       .  S
O368        H387   0.990       .  S
O368        H391   0.991       .  S
O369        H383   0.990       .  S
O369        H390   0.990   1_655  S
O370        C374   1.284       .  A
O371        C374   1.283       .  A
O372        H382   0.990       .  S
O373        H386   0.990       .  S
C374       C1013   1.476       .  S
Zr397       O398   2.438       .  S
Zr397       O399   2.436   1_556  S
Zr397       O400   2.416       .  S
Zr397       O403   2.467   1_556  S
Zr397       O405   2.389       .  S
Zr397       O406   2.375   1_556  S
Zr397       O407   2.417       .  S
Zr397       O408   2.407       .  S
O398        H454   0.990       .  S
O398        H462   0.990       .  S
O399        C419   1.285       .  A
O400        C421   1.283       .  A
O401       Zr411   2.425   1_554  S
O401        C420   1.284       .  A
O402       Zr410   2.456       .  S
O402        C421   1.289       .  A
O403        C420   1.290       .  A
O404       Zr412   2.446   1_554  S
O404        C419   1.287       .  A
O405       Zr410   2.395       .  S
O405       Zr412   2.370       .  S
O406       Zr411   2.393   1_554  S
O406       Zr412   2.365   1_554  S
O406        H441   0.966       .  S
O407       Zr410   2.405       .  S
O407       Zr427   2.394       .  S
O407        H444   0.966       .  S
O408       Zr411   2.386       .  S
O408       Zr427   2.412       .  S
Zr409       O434   2.438       .  S
Zr409       O428   2.431       .  S
Zr409       O436   2.465       .  S
Zr409       O424   2.421       .  S
Zr409       O415   2.400       .  S
Zr409       O416   2.418       .  S
Zr409       O417   2.381       .  S
Zr409       O418   2.378       .  S
Zr410       O429   2.437       .  S
Zr410       O422   2.436       .  S
Zr410       O423   2.456       .  S
Zr410       O416   2.409       .  S
Zr410       O417   2.389       .  S
Zr411       O413   2.435       .  S
Zr411       O435   2.436   1_556  S
Zr411       O437   2.423       .  S
Zr411       O415   2.389       .  S
Zr411       O418   2.389       .  S
Zr412       O438   2.435   1_556  S
Zr412       O439   2.435       .  S
Zr412       O414   2.438       .  S
Zr412       O415   2.406       .  S
Zr412       O416   2.389       .  S
O413        H450   0.990       .  S
O414        H445   0.990       .  S
O414        H459   0.989       .  S
O416        H442   0.965       .  S
O417       Zr427   2.370       .  S
O418       Zr427   2.382       .  S
O418        H443   0.966       .  S
C419       C1453   1.496       .  S
C420        C937   1.485       .  S
C421        C947   1.476       .  S
O422        H458   0.990       .  S
O423        C425   1.289       .  A
O424        C425   1.283       .  A
C425       C1069   1.480       .  S
O426       Zr427   2.439       .  S
O426        H455   0.990       .  S
Zr427       O430   2.439       .  S
Zr427       O431   2.441       .  S
Zr427       O432   2.439       .  S
O428        C433   1.285       .  A
O429        H446   0.990       .  S
O429        H461   0.990       .  S
O430        H447   0.990       .  S
O431        H451   0.990       .  S
O431        H460   0.990       .  S
O432        C433   1.285       .  A
C433        C969   1.488       .  S
O434        H453   0.990       .  S
O434        H457   0.990       .  S
O435        H449   0.990       .  S
O435        H456   0.990       .  S
O436        C440   1.289       .  A
O437        C440   1.284       .  A
O438        H448   0.990       .  S
O439        H452   0.990       .  S
C440       C1333   1.494       .  S
Zr463       O464   2.438       .  S
Zr463       O465   2.444       .  S
Zr463       O466   2.400       .  S
Zr463       O469   2.442       .  S
Zr463       O471   2.378       .  S
Zr463       O472   2.375       .  S
Zr463       O473   2.411       .  S
Zr463       O474   2.400       .  S
O464        H520   0.990       .  S
O464        H528   0.990       .  S
O465        C485   1.287       .  A
O466        C487   1.280       .  A
O467       Zr477   2.427       .  S
O467        C486   1.285       .  A
O468       Zr476   2.459       .  S
O468        C487   1.290       .  A
O469        C486   1.287       .  A
O470       Zr478   2.436       .  S
O470        C485   1.285       .  A
O471       Zr476   2.391       .  S
O471       Zr478   2.370       .  S
O472       Zr477   2.393       .  S
O472       Zr478   2.374       .  S
O472        H507   0.966       .  S
O473       Zr476   2.406       .  S
O473       Zr493   2.388       .  S
O473        H510   0.964       .  S
O474       Zr477   2.384       .  S
O474       Zr493   2.401       .  S
Zr475       O500   2.439       .  S
Zr475       O494   2.423       .  S
Zr475       O502   2.431       .  S
Zr475       O490   2.400       .  S
Zr475       O481   2.394       .  S
Zr475       O482   2.404       .  S
Zr475       O483   2.381       .  S
Zr475       O484   2.376       .  S
Zr476       O495   2.437       .  S
Zr476       O488   2.432       .  S
Zr476       O489   2.460       .  S
Zr476       O482   2.407       .  S
Zr476       O483   2.383       .  S
Zr477       O479   2.434       .  S
Zr477       O501   2.435       .  S
Zr477       O503   2.423       .  S
Zr477       O481   2.387       .  S
Zr477       O484   2.385       .  S
Zr478       O504   2.436       .  S
Zr478       O505   2.436       .  S
Zr478       O480   2.436       .  S
Zr478       O481   2.404       .  S
Zr478       O482   2.397       .  S
O479        H516   0.990       .  S
O480        H511   0.990       .  S
O480        H525   0.990       .  S
O482        H508   0.966       .  S
O483       Zr493   2.369       .  S
O484       Zr493   2.367       .  S
O484        H509   0.965       .  S
C485        C881   1.493       .  S
C486       C1355   1.484       .  S
C487        C903   1.480       .  S
O488        H524   0.990       .  S
O489        C491   1.290       .  A
O490        C491   1.281       .  A
C491        C981   1.475       .  S
O492       Zr493   2.441       .  S
O492        H521   0.990       .  S
Zr493       O496   2.442       .  S
Zr493       O497   2.443       .  S
Zr493       O498   2.428       .  S
O494        C499   1.283       .  A
O495        H512   0.990       .  S
O495        H527   0.990       .  S
O496        H513   0.990       .  S
O497        H517   0.990       .  S
O497        H526   0.990       .  S
O498        C499   1.284       .  A
C499       C1047   1.482       .  S
O500        H519   0.990       .  S
O500        H523   0.990       .  S
O501        H515   0.990       .  S
O501        H522   0.990       .  S
O502        C506   1.283       .  A
O503        C506   1.284       .  A
O504        H514   0.990       .  S
O505        H518   0.990       .  S
C506       C1167   1.464       .  S
Zr529       O530   2.439       .  S
Zr529       O531   2.423       .  S
Zr529       O532   2.424       .  S
Zr529       O535   2.440       .  S
Zr529       O537   2.381       .  S
Zr529       O538   2.381       .  S
Zr529       O539   2.407       .  S
Zr529       O540   2.398       .  S
O530        H586   0.990       .  S
O530        H594   0.990       .  S
O531        C551   1.283       .  A
O532        C553   1.283       .  A
O533       Zr543   2.410       .  S
O533        C552   1.282       .  A
O534       Zr542   2.458       .  S
O534        C553   1.289       .  A
O535        C552   1.285       .  A
O536       Zr544   2.422       .  S
O536        C551   1.283       .  A
O537       Zr542   2.386       .  S
O537       Zr544   2.377       .  S
O538       Zr543   2.386       .  S
O538       Zr544   2.376       .  S
O538        H573   0.966       .  S
O539       Zr542   2.402       .  S
O539       Zr559   2.396       .  S
O539        H576   0.966       .  S
O540       Zr543   2.384       .  S
O540       Zr559   2.398       .  S
Zr541       O566   2.438       .  S
Zr541       O560   2.433       .  S
Zr541       O568   2.459       .  S
Zr541       O556   2.413       .  S
Zr541       O547   2.394       .  S
Zr541       O548   2.414       .  S
Zr541       O549   2.380       .  S
Zr541       O550   2.375       .  S
Zr542       O561   2.436       .  S
Zr542       O554   2.436       .  S
Zr542       O555   2.447       .  S
Zr542       O548   2.407       .  S
Zr542       O549   2.392       .  S
Zr543       O545   2.434       .  S
Zr543       O567   2.437       .  S
Zr543       O569   2.416       .  S
Zr543       O547   2.377       .  S
Zr543       O550   2.392       .  S
Zr544       O570   2.436       .  S
Zr544       O571   2.437       .  S
Zr544       O546   2.437       .  S
Zr544       O547   2.392       .  S
Zr544       O548   2.391       .  S
O545        H582   0.990       .  S
O546        H577   0.991       .  S
O546        H591   0.990       .  S
O548        H574   0.966       .  S
O549       Zr559   2.366       .  S
O550       Zr559   2.380       .  S
O550        H575   0.966       .  S
C551        C915   1.480       .  S
C552       C1299   1.473       .  S
C553        C837   1.481       .  S
O554        H590   0.990       .  S
O555        C557   1.288       .  A
O556        C557   1.282       .  A
C557       C1091   1.475       .  S
O558       Zr559   2.439       .  S
O558        H587   0.990       .  S
Zr559       O562   2.436       .  S
Zr559       O563   2.440       .  S
Zr559       O564   2.440       .  S
O560        C565   1.286       .  A
O561        H578   0.990       .  S
O561        H593   0.990       .  S
O562        H579   0.990       .  S
O563        H583   0.990       .  S
O563        H592   0.990       .  S
O564        C565   1.286       .  A
C565        C871   1.492       .  S
O566        H585   0.990       .  S
O566        H589   0.990       .  S
O567        H581   0.990       .  S
O567        H588   0.990       .  S
O568        C572   1.289       .  A
O569        C572   1.283       .  A
O570        H580   0.990       .  S
O571        H584   0.990       .  S
C572        C925   1.484       .  S
Zr595       O596   2.439       .  S
Zr595       O597   2.432       .  S
Zr595       O598   2.412       .  S
Zr595       O601   2.447       .  S
Zr595       O603   2.383       .  S
Zr595       O604   2.376       .  S
Zr595       O605   2.410       .  S
Zr595       O606   2.401       .  S
O596        H652   0.990       .  S
O596        H660   0.990       .  S
O597        C617   1.285       .  A
O598        C619   1.282       .  A
O599       Zr609   2.428       .  S
O599        C618   1.285       .  A
O600       Zr608   2.469       .  S
O600        C619   1.292       .  A
O601        C618   1.287       .  A
O602       Zr610   2.432       .  S
O602        C617   1.284       .  A
O603       Zr608   2.390       .  S
O603       Zr610   2.369       .  S
O604       Zr609   2.390       .  S
O604       Zr610   2.366       .  S
O604        H639   0.966       .  S
O605       Zr608   2.408       .  S
O605       Zr625   2.393       .  S
O605        H642   0.966       .  S
O606       Zr609   2.387       .  S
O606       Zr625   2.403       .  S
Zr607       O632   2.445       .  S
Zr607       O626   2.440       .  S
Zr607       O634   2.461       .  S
Zr607       O622   2.416       .  S
Zr607       O613   2.402       .  S
Zr607       O614   2.416       .  S
Zr607       O615   2.381       .  S
Zr607       O616   2.377       .  S
Zr608       O627   2.440       .  S
Zr608       O620   2.434       .  S
Zr608       O621   2.477       .  S
Zr608       O614   2.406       .  S
Zr608       O615   2.390       .  S
Zr609       O611   2.434       .  S
Zr609       O633   2.438       .  S
Zr609       O635   2.418       .  S
Zr609       O613   2.390       .  S
Zr609       O616   2.389       .  S
Zr610       O636   2.438       .  S
Zr610       O637   2.435       .  S
Zr610       O612   2.438       .  S
Zr610       O613   2.401       .  S
Zr610       O614   2.394       .  S
O611        H648   0.990       .  S
O612        H643   0.991       .  S
O612        H657   0.990       .  S
O614        H640   0.965       .  S
O615       Zr625   2.375       .  S
O616       Zr625   2.377       .  S
O616        H641   0.965       .  S
C617        C815   1.488       .  S
C618       C1157   1.479       .  S
C619       C1233   1.491       .  S
O620        H656   0.990       .  S
O621        C623   1.293       .  A
O622        C623   1.282       .  A
C623        C893   1.484       .  S
O624       Zr625   2.439       .  S
O624        H653   0.990       .  S
Zr625       O628   2.435       .  S
Zr625       O629   2.443       .  S
Zr625       O630   2.432       .  S
O626        C631   1.287       .  A
O627        H644   0.990       .  S
O627        H659   0.990       .  S
O628        H645   0.990       .  S
O629        H649   0.990       .  S
O629        H658   0.989       .  S
O630        C631   1.285       .  A
C631        C849   1.490       .  S
O632        H651   0.990       .  S
O632        H655   0.990       .  S
O633        H647   0.990       .  S
O633        H654   0.990       .  S
O634        C638   1.289       .  A
O635        C638   1.283       .  A
O636        H646   0.990       .  S
O637        H650   0.990       .  S
C638       C1553   1.480       .  S
Zr661       O662   2.439       .  S
Zr661       O663   2.421   1_545  S
Zr661       O664   2.414       .  S
Zr661       O667   2.456   1_545  S
Zr661       O669   2.388       .  S
Zr661       O670   2.375   1_545  S
Zr661       O671   2.412       .  S
Zr661       O672   2.397       .  S
O662        H718   0.990       .  S
O662        H726   0.990       .  S
O663        C683   1.283       .  A
O664        C685   1.282       .  A
O665       Zr675   2.410   1_565  S
O665        C684   1.282       .  A
O666       Zr674   2.464       .  S
O666        C685   1.291       .  A
O667        C684   1.288       .  A
O668       Zr676   2.431   1_565  S
O668        C683   1.284       .  A
O669       Zr674   2.392       .  S
O669       Zr676   2.374       .  S
O670       Zr675   2.386   1_565  S
O670       Zr676   2.370   1_565  S
O670        H705   0.966       .  S
O671       Zr674   2.412       .  S
O671       Zr691   2.386       .  S
O671        H708   0.965       .  S
O672       Zr675   2.386       .  S
O672       Zr691   2.404       .  S
Zr673       O698   2.436       .  S
Zr673       O692   2.423       .  S
Zr673       O700   2.453       .  S
Zr673       O688   2.416       .  S
Zr673       O679   2.392       .  S
Zr673       O680   2.410       .  S
Zr673       O681   2.384       .  S
Zr673       O682   2.371       .  S
Zr674       O693   2.437       .  S
Zr674       O686   2.436       .  S
Zr674       O687   2.465       .  S
Zr674       O680   2.408       .  S
Zr674       O681   2.394       .  S
Zr675       O677   2.434   1_545  S
Zr675       O699   2.437   1_545  S
Zr675       O701   2.412       .  S
Zr675       O679   2.382       .  S
Zr675       O682   2.385       .  S
Zr676       O702   2.437   1_545  S
Zr676       O703   2.435       .  S
Zr676       O678   2.437       .  S
Zr676       O679   2.402       .  S
Zr676       O680   2.388       .  S
O677        H714   0.990   1_565  S
O678        H709   0.990       .  S
O678        H723   0.990       .  S
O680        H706   0.965       .  S
O681       Zr691   2.375       .  S
O682       Zr691   2.369       .  S
O682        H707   0.965       .  S
C683        C959   1.481       .  S
C684        C793   1.480       .  S
C685       C1531   1.480       .  S
O686        H722   0.990       .  S
O687        C689   1.291       .  A
O688        C689   1.283       .  A
C689        C827   1.483       .  S
O690       Zr691   2.436       .  S
O690        H719   0.990       .  S
Zr691       O694   2.439       .  S
Zr691       O695   2.441       .  S
Zr691       O696   2.427       .  S
O692        C697   1.283       .  A
O693        H710   0.990       .  S
O693        H725   0.990       .  S
O694        H711   0.990       .  S
O695        H715   0.990       .  S
O695        H724   0.990       .  S
O696        C697   1.283       .  A
C697       C1189   1.483       .  S
O698        H717   0.990       .  S
O698        H721   0.990       .  S
O699        H713   0.990       .  S
O699        H720   0.990       .  S
O700        C704   1.288       .  A
O701        C704   1.282       .  A
O702        H712   0.990       .  S
O703        H716   0.990       .  S
C704       C1025   1.476       .  S
Zr727       O728   2.440       .  S
Zr727       O729   2.433   1_554  S
Zr727       O730   2.418       .  S
Zr727       O733   2.464   1_554  S
Zr727       O735   2.388       .  S
Zr727       O736   2.374   1_554  S
Zr727       O737   2.411       .  S
Zr727       O738   2.396       .  S
O728        H784   0.991       .  S
O728        H792   0.990       .  S
O729        C749   1.285       .  A
O730        C751   1.283       .  A
O731       Zr741   2.419       .  S
O731        C750   1.283       .  A
O732       Zr740   2.463       .  S
O732        C751   1.291       .  A
O733        C750   1.289       .  A
O734       Zr742   2.426   1_556  S
O734        C749   1.282       .  A
O735       Zr740   2.398       .  S
O735       Zr742   2.373       .  S
O736       Zr741   2.390       .  S
O736       Zr742   2.373   1_556  S
O736        H771   0.966       .  S
O737       Zr740   2.411       .  S
O737       Zr757   2.392       .  S
O737        H774   0.965       .  S
O738       Zr741   2.387   1_554  S
O738       Zr757   2.400       .  S
Zr739       O764   2.441       .  S
Zr739       O758   2.445       .  S
Zr739       O766   2.450       .  S
Zr739       O754   2.422       .  S
Zr739       O745   2.403       .  S
Zr739       O746   2.415       .  S
Zr739       O747   2.382       .  S
Zr739       O748   2.379       .  S
Zr740       O759   2.437       .  S
Zr740       O752   2.435       .  S
Zr740       O753   2.474       .  S
Zr740       O746   2.408       .  S
Zr740       O747   2.394       .  S
Zr741       O743   2.435       .  S
Zr741       O765   2.436       .  S
Zr741       O767   2.415       .  S
Zr741       O745   2.387   1_556  S
Zr741       O748   2.396   1_556  S
Zr742       O768   2.436   1_554  S
Zr742       O769   2.435       .  S
Zr742       O744   2.441       .  S
Zr742       O745   2.400       .  S
Zr742       O746   2.389       .  S
O743        H780   0.990       .  S
O744        H775   0.990       .  S
O744        H789   0.990       .  S
O746        H772   0.965       .  S
O747       Zr757   2.378       .  S
O748       Zr757   2.380       .  S
O748        H773   0.966       .  S
C749       C1211   1.487       .  S
C750        C991   1.481       .  S
C751       C1277   1.484       .  S
O752        H788   0.990       .  S
O753        C755   1.293       .  A
O754        C755   1.283       .  A
C755        C859   1.492       .  S
O756       Zr757   2.435       .  S
O756        H785   0.990       .  S
Zr757       O760   2.435       .  S
Zr757       O761   2.438       .  S
Zr757       O762   2.427       .  S
O758        C763   1.287       .  A
O759        H776   0.990       .  S
O759        H791   0.990       .  S
O760        H777   0.989       .  S
O761        H781   0.990       .  S
O761        H790   0.990       .  S
O762        C763   1.283       .  A
C763       C1113   1.492       .  S
O764        H783   0.990       .  S
O764        H787   0.990       .  S
O765        H779   0.990       .  S
O765        H786   0.990       .  S
O766        C770   1.287       .  A
O767        C770   1.283   1_556  A
O768        H778   0.990       .  S
O769        H782   0.990       .  S
C770        C805   1.484       .  S
C793        C794   1.401       .  A
C793        C798   1.400       .  A
C794        C795   1.407       .  A
C794        H807   1.083       .  S
C795        C796   1.420       .  A
C795        H808   1.078   1_556  S
C796        C802   1.435       .  A
C796        C797   1.422       .  A
C797        C799   1.397       .  A
C797        C798   1.398       .  A
C798        H809   1.085       .  S
C799        C800   1.384       .  A
C799        H810   1.084       .  S
C800        C801   1.397       .  A
C800        H811   1.084       .  S
C801        C802   1.423       .  A
C801        C806   1.399       .  A
C802        C803   1.418   1_556  A
C803        C804   1.405       .  A
C803        H812   1.078       .  S
C804        C805   1.402       .  A
C804        H813   1.083       .  S
C805        C806   1.401   1_554  A
C806        H814   1.085       .  S
C815        C816   1.402       .  A
C815        C820   1.406       .  A
C816        C817   1.397       .  A
C816        H829   1.083       .  S
C817        C818   1.416       .  A
C817        H830   1.077       .  S
C818        C824   1.431       .  A
C818        C819   1.421       .  A
C819        C821   1.401       .  A
C819        C820   1.407       .  A
C820        H831   1.084       .  S
C821        C822   1.392       .  A
C821        H832   1.084       .  S
C822        C823   1.400       .  A
C822        H833   1.084       .  S
C823        C824   1.424       .  A
C823        C828   1.411       .  A
C824        C825   1.412       .  A
C825        C826   1.394       .  A
C825        H834   1.077       .  S
C826        C827   1.402       .  A
C826        H835   1.084       .  S
C827        C828   1.402       .  A
C828        H836   1.084       .  S
C837        C838   1.400       .  A
C837        C842   1.402       .  A
C838        C839   1.396       .  A
C838        H851   1.084       .  S
C839        C840   1.414       .  A
C839        H852   1.077       .  S
C840        C846   1.433       .  A
C840        C841   1.424       .  A
C841        C843   1.400       .  A
C841        C842   1.411       .  A
C842        H853   1.085       .  S
C843        C844   1.392       .  A
C843        H854   1.084       .  S
C844        C845   1.401       .  A
C844        H855   1.084       .  S
C845        C846   1.422       .  A
C845        C850   1.409       .  A
C846        C847   1.415       .  A
C847        C848   1.398       .  A
C847        H856   1.077       .  S
C848        C849   1.402       .  A
C848        H857   1.083       .  S
C849        C850   1.406       .  A
C850        H858   1.084       .  S
C859        C860   1.402       .  A
C859        C864   1.407       .  A
C860        C861   1.404       .  A
C860        H873   1.083       .  S
C861        C862   1.418       .  A
C861        H874   1.078       .  S
C862        C868   1.436       .  A
C862        C863   1.421       .  A
C863        C865   1.400       .  A
C863        C864   1.405       .  A
C864        H875   1.085       .  S
C865        C866   1.389       .  A
C865        H876   1.084       .  S
C866        C867   1.399       .  A
C866        H877   1.084       .  S
C867        C868   1.423       .  A
C867        C872   1.407       .  A
C868        C869   1.415       .  A
C869        C870   1.401       .  A
C869        H878   1.078       .  S
C870        C871   1.405       .  A
C870        H879   1.083       .  S
C871        C872   1.404       .  A
C872        H880   1.084       .  S
C881        C882   1.404       .  A
C881        C886   1.405       .  A
C882        C883   1.402       .  A
C882        H895   1.083       .  S
C883        C884   1.417       .  A
C883        H896   1.078       .  S
C884        C890   1.436       .  A
C884        C885   1.421       .  A
C885        C887   1.400       .  A
C885        C886   1.409       .  A
C886        H897   1.084       .  S
C887        C888   1.392       .  A
C887        H898   1.084       .  S
C888        C889   1.400       .  A
C888        H899   1.084       .  S
C889        C890   1.425       .  A
C889        C894   1.413       .  A
C890        C891   1.414       .  A
C891        C892   1.398       .  A
C891        H900   1.078       .  S
C892        C893   1.402       .  A
C892        H901   1.084       .  S
C893        C894   1.402       .  A
C894        H902   1.085       .  S
C903        C904   1.399       .  A
C903        C908   1.404       .  A
C904        C905   1.399       .  A
C904        H917   1.083       .  S
C905        C906   1.417       .  A
C905        H918   1.077       .  S
C906        C912   1.429       .  A
C906        C907   1.420       .  A
C907        C909   1.399       .  A
C907        C908   1.399       .  A
C908        H919   1.085       .  S
C909        C910   1.387       .  A
C909        H920   1.084       .  S
C910        C911   1.398       .  A
C910        H921   1.084       .  S
C911        C912   1.423       .  A
C911        C916   1.402       .  A
C912        C913   1.413       .  A
C913        C914   1.395       .  A
C913        H922   1.077       .  S
C914        C915   1.402       .  A
C914        H923   1.083       .  S
C915        C916   1.401       .  A
C916        H924   1.085       .  S
C925        C926   1.401       .  A
C925        C930   1.403       .  A
C926        C927   1.394       .  A
C926        H939   1.084       .  S
C927        C928   1.414       .  A
C927        H940   1.077       .  S
C928        C934   1.434       .  A
C928        C929   1.424       .  A
C929        C931   1.401       .  A
C929        C930   1.415       .  A
C930        H941   1.084       .  S
C931        C932   1.396       .  A
C931        H942   1.084       .  S
C932        C933   1.402       .  A
C932        H943   1.084       .  S
C933        C934   1.424       .  A
C933        C938   1.417       .  A
C934        C935   1.414       .  A
C935        C936   1.394       .  A
C935        H944   1.077       .  S
C936        C937   1.400       .  A
C936        H945   1.084       .  S
C937        C938   1.404       .  A
C938        H946   1.084       .  S
C947        C948   1.400       .  A
C947        C952   1.401       .  A
C948        C949   1.392       .  A
C948        H961   1.084       .  S
C949        C950   1.413       .  A
C949        H962   1.077       .  S
C950        C956   1.428       .  A
C950        C951   1.423       .  A
C951        C953   1.400       .  A
C951        C952   1.409       .  A
C952        H963   1.084       .  S
C953        C954   1.392       .  A
C953        H964   1.084       .  S
C954        C955   1.400       .  A
C954        H965   1.084       .  S
C955        C956   1.421       .  A
C955        C960   1.406       .  A
C956        C957   1.414       .  A
C957        C958   1.393       .  A
C957        H966   1.077       .  S
C958        C959   1.401       .  A
C958        H967   1.084       .  S
C959        C960   1.404       .  A
C960        H968   1.084       .  S
C969        C970   1.403       .  A
C969        C974   1.405       .  A
C970        C971   1.395       .  A
C970        H983   1.083       .  S
C971        C972   1.414       .  A
C971        H984   1.077       .  S
C972        C978   1.430       .  A
C972        C973   1.422       .  A
C973        C975   1.401       .  A
C973        C974   1.408       .  A
C974        H985   1.084       .  S
C975        C976   1.392       .  A
C975        H986   1.084       .  S
C976        C977   1.399       .  A
C976        H987   1.084       .  S
C977        C978   1.424       .  A
C977        C982   1.409       .  A
C978        C979   1.413       .  A
C979        C980   1.392       .  A
C979        H988   1.077       .  S
C980        C981   1.401       .  A
C980        H989   1.084       .  S
C981        C982   1.400       .  A
C982        H990   1.085       .  S
C991        C992   1.398       .  A
C991        C996   1.405       .  A
C992        C993   1.393       .  A
C992       H1005   1.084       .  S
C993        C994   1.413       .  A
C993       H1006   1.077       .  S
C994       C1000   1.432       .  A
C994        C995   1.424       .  A
C995        C997   1.402   1_655  A
C995        C996   1.416       .  A
C996       H1007   1.084       .  S
C997        C998   1.397       .  A
C997       H1008   1.084       .  S
C998        C999   1.402       .  A
C998       H1009   1.084       .  S
C999       C1000   1.423   1_455  A
C999       C1004   1.415       .  A
C1000      C1001   1.414       .  A
C1001      C1002   1.393       .  A
C1001      H1010   1.076       .  S
C1002      C1003   1.398   1_655  A
C1002      H1011   1.084       .  S
C1003      C1004   1.405       .  A
C1004      H1012   1.084       .  S
C1013      C1014   1.400       .  A
C1013      C1018   1.398       .  A
C1014      C1015   1.403       .  A
C1014      H1027   1.083       .  S
C1015      C1016   1.418       .  A
C1015      H1028   1.078       .  S
C1016      C1022   1.432   1_565  A
C1016      C1017   1.423       .  A
C1017      C1019   1.397       .  A
C1017      C1018   1.397       .  A
C1018      H1029   1.085       .  S
C1019      C1020   1.384       .  A
C1019      H1030   1.084       .  S
C1020      C1021   1.398   1_565  A
C1020      H1031   1.084       .  S
C1021      C1022   1.422       .  A
C1021      C1026   1.398       .  A
C1022      C1023   1.419       .  A
C1023      C1024   1.404       .  A
C1023      H1032   1.078       .  S
C1024      C1025   1.400       .  A
C1024      H1033   1.083       .  S
C1025      C1026   1.399       .  A
C1026      H1034   1.085       .  S
C1035      C1036   1.397       .  A
C1035      C1040   1.404       .  A
C1036      C1037   1.397       .  A
C1036      H1049   1.083       .  S
C1037      C1038   1.418       .  A
C1037      H1050   1.077       .  S
C1038      C1044   1.428       .  A
C1038      C1039   1.420       .  A
C1039      C1041   1.400       .  A
C1039      C1040   1.400       .  A
C1040      H1051   1.085       .  S
C1041      C1042   1.389       .  A
C1041      H1052   1.084       .  S
C1042      C1043   1.399       .  A
C1042      H1053   1.084       .  S
C1043      C1044   1.423       .  A
C1043      C1048   1.405       .  A
C1044      C1045   1.412       .  A
C1045      C1046   1.392       .  A
C1045      H1054   1.077       .  S
C1046      C1047   1.402       .  A
C1046      H1055   1.083       .  S
C1047      C1048   1.403       .  A
C1048      H1056   1.084       .  S
C1057      C1058   1.405       .  A
C1057      C1062   1.402       .  A
C1058      C1059   1.399       .  A
C1058      H1071   1.083       .  S
C1059      C1060   1.414       .  A
C1059      H1072   1.078       .  S
C1060      C1066   1.433       .  A
C1060      C1061   1.424       .  A
C1061      C1063   1.398       .  A
C1061      C1062   1.405       .  A
C1062      H1073   1.084       .  S
C1063      C1064   1.388       .  A
C1063      H1074   1.084       .  S
C1064      C1065   1.399       .  A
C1064      H1075   1.084       .  S
C1065      C1066   1.421       .  A
C1065      C1070   1.401       .  A
C1066      C1067   1.418       .  A
C1067      C1068   1.402       .  A
C1067      H1076   1.078       .  S
C1068      C1069   1.401       .  A
C1068      H1077   1.083       .  S
C1069      C1070   1.401       .  A
C1070      H1078   1.085       .  S
C1079      C1080   1.401       .  A
C1079      C1084   1.404       .  A
C1080      C1081   1.392       .  A
C1080      H1093   1.083       .  S
C1081      C1082   1.414       .  A
C1081      H1094   1.076       .  S
C1082      C1088   1.427       .  A
C1082      C1083   1.421       .  A
C1083      C1085   1.400       .  A
C1083      C1084   1.406       .  A
C1084      H1095   1.084       .  S
C1085      C1086   1.392       .  A
C1085      H1096   1.084       .  S
C1086      C1087   1.400       .  A
C1086      H1097   1.084       .  S
C1087      C1088   1.423       .  A
C1087      C1092   1.408       .  A
C1088      C1089   1.413       .  A
C1089      C1090   1.390       .  A
C1089      H1098   1.076       .  S
C1090      C1091   1.400       .  A
C1090      H1099   1.084       .  S
C1091      C1092   1.401       .  A
C1092      H1100   1.084       .  S
C1101      C1102   1.401       .  A
C1101      C1106   1.405       .  A
C1102      C1103   1.405       .  A
C1102      H1115   1.083       .  S
C1103      C1104   1.419       .  A
C1103      H1116   1.078       .  S
C1104      C1110   1.436       .  A
C1104      C1105   1.421       .  A
C1105      C1107   1.400       .  A
C1105      C1106   1.404       .  A
C1106      H1117   1.085       .  S
C1107      C1108   1.389       .  A
C1107      H1118   1.084       .  S
C1108      C1109   1.399       .  A
C1108      H1119   1.084       .  S
C1109      C1110   1.423       .  A
C1109      C1114   1.407       .  A
C1110      C1111   1.415       .  A
C1111      C1112   1.401       .  A
C1111      H1120   1.078       .  S
C1112      C1113   1.405       .  A
C1112      H1121   1.083       .  S
C1113      C1114   1.404       .  A
C1114      H1122   1.084       .  S
C1123      C1124   1.403       .  A
C1123      C1128   1.401       .  A
C1124      C1125   1.393       .  A
C1124      H1137   1.084       .  S
C1125      C1126   1.412       .  A
C1125      H1138   1.077       .  S
C1126      C1132   1.430       .  A
C1126      C1127   1.424       .  A
C1127      C1129   1.399       .  A
C1127      C1128   1.410       .  A
C1128      H1139   1.084       .  S
C1129      C1130   1.392       .  A
C1129      H1140   1.084       .  S
C1130      C1131   1.401       .  A
C1130      H1141   1.084       .  S
C1131      C1132   1.421       .  A
C1131      C1136   1.407       .  A
C1132      C1133   1.415       .  A
C1133      C1134   1.396       .  A
C1133      H1142   1.077       .  S
C1134      C1135   1.403       .  A
C1134      H1143   1.083       .  S
C1135      C1136   1.405       .  A
C1136      H1144   1.084       .  S
C1145      C1146   1.400       .  A
C1145      C1150   1.404       .  A
C1146      C1147   1.390       .  A
C1146      H1159   1.084       .  S
C1147      C1148   1.412       .  A
C1147      H1160   1.077       .  S
C1148      C1154   1.429       .  A
C1148      C1149   1.423       .  A
C1149      C1151   1.401       .  A
C1149      C1150   1.414       .  A
C1150      H1161   1.084       .  S
C1151      C1152   1.396       .  A
C1151      H1162   1.084       .  S
C1152      C1153   1.402       .  A
C1152      H1163   1.084       .  S
C1153      C1154   1.423       .  A
C1153      C1158   1.413       .  A
C1154      C1155   1.413       .  A
C1155      C1156   1.391       .  A
C1155      H1164   1.076       .  S
C1156      C1157   1.398       .  A
C1156      H1165   1.084       .  S
C1157      C1158   1.404       .  A
C1158      H1166   1.084       .  S
C1167      C1168   1.394       .  A
C1167      C1172   1.400       .  A
C1168      C1169   1.387       .  A
C1168      H1181   1.084       .  S
C1169      C1170   1.413       .  A
C1169      H1182   1.076       .  S
C1170      C1176   1.425       .  A
C1170      C1171   1.423       .  A
C1171      C1173   1.401       .  A
C1171      C1172   1.409       .  A
C1172      H1183   1.084       .  S
C1173      C1174   1.394       .  A
C1173      H1184   1.084       .  S
C1174      C1175   1.401       .  A
C1174      H1185   1.084       .  S
C1175      C1176   1.423       .  A
C1175      C1180   1.409       .  A
C1176      C1177   1.412       .  A
C1177      C1178   1.387       .  A
C1177      H1186   1.076       .  S
C1178      C1179   1.399       .  A
C1178      H1187   1.084       .  S
C1179      C1180   1.402       .  A
C1180      H1188   1.084       .  S
C1189      C1190   1.403       .  A
C1189      C1194   1.402       .  A
C1190      C1191   1.397       .  A
C1190      H1203   1.083       .  S
C1191      C1192   1.414       .  A
C1191      H1204   1.077       .  S
C1192      C1198   1.428       .  A
C1192      C1193   1.422       .  A
C1193      C1195   1.398       .  A
C1193      C1194   1.401       .  A
C1194      H1205   1.084       .  S
C1195      C1196   1.386       .  A
C1195      H1206   1.084       .  S
C1196      C1197   1.398       .  A
C1196      H1207   1.084       .  S
C1197      C1198   1.421       .  A
C1197      C1202   1.399       .  A
C1198      C1199   1.416       .  A
C1199      C1200   1.397       .  A
C1199      H1208   1.077       .  S
C1200      C1201   1.400       .  A
C1200      H1209   1.083       .  S
C1201      C1202   1.403       .  A
C1202      H1210   1.085       .  S
C1211      C1212   1.405       .  A
C1211      C1216   1.401       .  A
C1212      C1213   1.401       .  A
C1212      H1225   1.083       .  S
C1213      C1214   1.414       .  A
C1213      H1226   1.078       .  S
C1214      C1220   1.433       .  A
C1214      C1215   1.424       .  A
C1215      C1217   1.397       .  A
C1215      C1216   1.402       .  A
C1216      H1227   1.084       .  S
C1217      C1218   1.385       .  A
C1217      H1228   1.084       .  S
C1218      C1219   1.398       .  A
C1218      H1229   1.084       .  S
C1219      C1220   1.421       .  A
C1219      C1224   1.398       .  A
C1220      C1221   1.419       .  A
C1221      C1222   1.404       .  A
C1221      H1230   1.078       .  S
C1222      C1223   1.401       .  A
C1222      H1231   1.083       .  S
C1223      C1224   1.400       .  A
C1224      H1232   1.085       .  S
C1233      C1234   1.403       .  A
C1233      C1238   1.405       .  A
C1234      C1235   1.406       .  A
C1234      H1247   1.083       .  S
C1235      C1236   1.419       .  A
C1235      H1248   1.078       .  S
C1236      C1242   1.436       .  A
C1236      C1237   1.420       .  A
C1237      C1239   1.399       .  A
C1237      C1238   1.401       .  A
C1238      H1249   1.085       .  S
C1239      C1240   1.387       .  A
C1239      H1250   1.084       .  S
C1240      C1241   1.397       .  A
C1240      H1251   1.084       .  S
C1241      C1242   1.424       .  A
C1241      C1246   1.406       .  A
C1242      C1243   1.414       .  A
C1243      C1244   1.401       .  A
C1243      H1252   1.078       .  S
C1244      C1245   1.407       .  A
C1244      H1253   1.083       .  S
C1245      C1246   1.401       .  A
C1246      H1254   1.084       .  S
C1255      C1256   1.406       .  A
C1255      C1260   1.405       .  A
C1256      C1257   1.404       .  A
C1256      H1269   1.083       .  S
C1257      C1258   1.416       .  A
C1257      H1270   1.078       .  S
C1258      C1264   1.439       .  A
C1258      C1259   1.424       .  A
C1259      C1261   1.399       .  A
C1259      C1260   1.409       .  A
C1260      H1271   1.084       .  S
C1261      C1262   1.389       .  A
C1261      H1272   1.084       .  S
C1262      C1263   1.399       .  A
C1262      H1273   1.084       .  S
C1263      C1264   1.422       .  A
C1263      C1268   1.405   1_556  A
C1264      C1265   1.419       .  A
C1265      C1266   1.406   1_556  A
C1265      H1274   1.078       .  S
C1266      C1267   1.402       .  A
C1266      H1275   1.083       .  S
C1267      C1268   1.403       .  A
C1268      H1276   1.085       .  S
C1277      C1278   1.400       .  A
C1277      C1282   1.404       .  A
C1278      C1279   1.404       .  A
C1278      H1291   1.083       .  S
C1279      C1280   1.419   1_655  A
C1279      H1292   1.078   1_655  S
C1280      C1286   1.435       .  A
C1280      C1281   1.421       .  A
C1281      C1283   1.400       .  A
C1281      C1282   1.403   1_455  A
C1282      H1293   1.085       .  S
C1283      C1284   1.390       .  A
C1283      H1294   1.084       .  S
C1284      C1285   1.400       .  A
C1284      H1295   1.084       .  S
C1285      C1286   1.424       .  A
C1285      C1290   1.409       .  A
C1286      C1287   1.414       .  A
C1287      C1288   1.401       .  A
C1287      H1296   1.078       .  S
C1288      C1289   1.405       .  A
C1288      H1297   1.083       .  S
C1289      C1290   1.405       .  A
C1290      H1298   1.084       .  S
C1299      C1300   1.398       .  A
C1299      C1304   1.402       .  A
C1300      C1301   1.389       .  A
C1300      H1313   1.084       .  S
C1301      C1302   1.412       .  A
C1301      H1314   1.077       .  S
C1302      C1308   1.426       .  A
C1302      C1303   1.422       .  A
C1303      C1305   1.401       .  A
C1303      C1304   1.410       .  A
C1304      H1315   1.084       .  S
C1305      C1306   1.395       .  A
C1305      H1316   1.084       .  S
C1306      C1307   1.401       .  A
C1306      H1317   1.084       .  S
C1307      C1308   1.424       .  A
C1307      C1312   1.412       .  A
C1308      C1309   1.412       .  A
C1309      C1310   1.388       .  A
C1309      H1318   1.077       .  S
C1310      C1311   1.398       .  A
C1310      H1319   1.084       .  S
C1311      C1312   1.402       .  A
C1312      H1320   1.084       .  S
C1321      C1322   1.403       .  A
C1321      C1326   1.399       .  A
C1322      C1323   1.412       .  A
C1322      H1335   1.083       .  S
C1323      C1324   1.421       .  A
C1323      H1336   1.079   1_554  S
C1324      C1330   1.440       .  A
C1324      C1325   1.423       .  A
C1325      C1327   1.396       .  A
C1325      C1326   1.398       .  A
C1326      H1337   1.085       .  S
C1327      C1328   1.383       .  A
C1327      H1338   1.084       .  S
C1328      C1329   1.397       .  A
C1328      H1339   1.084       .  S
C1329      C1330   1.423       .  A
C1329      C1334   1.400       .  A
C1330      C1331   1.420   1_554  A
C1331      C1332   1.413       .  A
C1331      H1340   1.079       .  S
C1332      C1333   1.405       .  A
C1332      H1341   1.083       .  S
C1333      C1334   1.401   1_556  A
C1334      H1342   1.085       .  S
C1343      C1344   1.401       .  A
C1343      C1348   1.399       .  A
C1344      C1345   1.408       .  A
C1344      H1357   1.083       .  S
C1345      C1346   1.421       .  A
C1345      H1358   1.078       .  S
C1346      C1352   1.435       .  A
C1346      C1347   1.422       .  A
C1347      C1349   1.398       .  A
C1347      C1348   1.397       .  A
C1348      H1359   1.086       .  S
C1349      C1350   1.384       .  A
C1349      H1360   1.084       .  S
C1350      C1351   1.397       .  A
C1350      H1361   1.084       .  S
C1351      C1352   1.424       .  A
C1351      C1356   1.401       .  A
C1352      C1353   1.417       .  A
C1353      C1354   1.405       .  A
C1353      H1362   1.078       .  S
C1354      C1355   1.402       .  A
C1354      H1363   1.083       .  S
C1355      C1356   1.400       .  A
C1356      H1364   1.085       .  S
C1365      C1366   1.400       .  A
C1365      C1370   1.402       .  A
C1366      C1367   1.405       .  A
C1366      H1379   1.083       .  S
C1367      C1368   1.419       .  A
C1367      H1380   1.078       .  S
C1368      C1374   1.435       .  A
C1368      C1369   1.422       .  A
C1369      C1371   1.398       .  A
C1369      C1370   1.399       .  A
C1370      H1381   1.085       .  S
C1371      C1372   1.385       .  A
C1371      H1382   1.084       .  S
C1372      C1373   1.397   1_455  A
C1372      H1383   1.084       .  S
C1373      C1374   1.423   1_655  A
C1373      C1378   1.400       .  A
C1374      C1375   1.418   1_455  A
C1375      C1376   1.405       .  A
C1375      H1384   1.078       .  S
C1376      C1377   1.402       .  A
C1376      H1385   1.083       .  S
C1377      C1378   1.399       .  A
C1378      H1386   1.085       .  S
C1387      C1388   1.398       .  A
C1387      C1392   1.402       .  A
C1388      C1389   1.400   1_455  A
C1388      H1401   1.084       .  S
C1389      C1390   1.418       .  A
C1389      H1402   1.077       .  S
C1390      C1396   1.433       .  A
C1390      C1391   1.422       .  A
C1391      C1393   1.399       .  A
C1391      C1392   1.404   1_655  A
C1392      H1403   1.085       .  S
C1393      C1394   1.389       .  A
C1393      H1404   1.084       .  S
C1394      C1395   1.399       .  A
C1394      H1405   1.084       .  S
C1395      C1396   1.424       .  A
C1395      C1400   1.407       .  A
C1396      C1397   1.414       .  A
C1397      C1398   1.397       .  A
C1397      H1406   1.077       .  S
C1398      C1399   1.404       .  A
C1398      H1407   1.083       .  S
C1399      C1400   1.403       .  A
C1400      H1408   1.084       .  S
C1409      C1410   1.403       .  A
C1409      C1414   1.406       .  A
C1410      C1411   1.392       .  A
C1410      H1423   1.083       .  S
C1411      C1412   1.412       .  A
C1411      H1424   1.077       .  S
C1412      C1418   1.430       .  A
C1412      C1413   1.423       .  A
C1413      C1415   1.401       .  A
C1413      C1414   1.411       .  A
C1414      H1425   1.084       .  S
C1415      C1416   1.392       .  A
C1415      H1426   1.084       .  S
C1416      C1417   1.400       .  A
C1416      H1427   1.084       .  S
C1417      C1418   1.422       .  A
C1417      C1422   1.407       .  A
C1418      C1419   1.415       .  A
C1419      C1420   1.394       .  A
C1419      H1428   1.077       .  S
C1420      C1421   1.400       .  A
C1420      H1429   1.084       .  S
C1421      C1422   1.401       .  A
C1422      H1430   1.085       .  S
C1431      C1432   1.404       .  A
C1431      C1436   1.409       .  A
C1432      C1433   1.401       .  A
C1432      H1445   1.083       .  S
C1433      C1434   1.416       .  A
C1433      H1446   1.078       .  S
C1434      C1440   1.436       .  A
C1434      C1435   1.421       .  A
C1435      C1437   1.402       .  A
C1435      C1436   1.412       .  A
C1436      H1447   1.084       .  S
C1437      C1438   1.395       .  A
C1437      H1448   1.084       .  S
C1438      C1439   1.400       .  A
C1438      H1449   1.084       .  S
C1439      C1440   1.425       .  A
C1439      C1444   1.416   1_545  A
C1440      C1441   1.412       .  A
C1441      C1442   1.396   1_545  A
C1441      H1450   1.078       .  S
C1442      C1443   1.403       .  A
C1442      H1451   1.084       .  S
C1443      C1444   1.404       .  A
C1444      H1452   1.084       .  S
C1453      C1454   1.405       .  A
C1453      C1458   1.406       .  A
C1454      C1455   1.401       .  A
C1454      H1467   1.083       .  S
C1455      C1456   1.416       .  A
C1455      H1468   1.078       .  S
C1456      C1462   1.434       .  A
C1456      C1457   1.421       .  A
C1457      C1459   1.400       .  A
C1457      C1458   1.409       .  A
C1458      H1469   1.084       .  S
C1459      C1460   1.391       .  A
C1459      H1470   1.084       .  S
C1460      C1461   1.398   1_565  A
C1460      H1471   1.084   1_565  S
C1461      C1462   1.424   1_545  A
C1461      C1466   1.409       .  A
C1462      C1463   1.414       .  A
C1463      C1464   1.397   1_565  A
C1463      H1472   1.078       .  S
C1464      C1465   1.404       .  A
C1464      H1473   1.084       .  S
C1465      C1466   1.399       .  A
C1466      H1474   1.085       .  S
C1475      C1476   1.399       .  A
C1475      C1480   1.404       .  A
C1476      C1477   1.401       .  A
C1476      H1489   1.083       .  S
C1477      C1478   1.418       .  A
C1477      H1490   1.077       .  S
C1478      C1484   1.431       .  A
C1478      C1479   1.421       .  A
C1479      C1481   1.400       .  A
C1479      C1480   1.402       .  A
C1480      H1491   1.085       .  S
C1481      C1482   1.388       .  A
C1481      H1492   1.084       .  S
C1482      C1483   1.399       .  A
C1482      H1493   1.084       .  S
C1483      C1484   1.423       .  A
C1483      C1488   1.404       .  A
C1484      C1485   1.414       .  A
C1485      C1486   1.396       .  A
C1485      H1494   1.077       .  S
C1486      C1487   1.402       .  A
C1486      H1495   1.083       .  S
C1487      C1488   1.402       .  A
C1488      H1496   1.085       .  S
C1497      C1498   1.403       .  A
C1497      C1502   1.405       .  A
C1498      C1499   1.394       .  A
C1498      H1511   1.084       .  S
C1499      C1500   1.413       .  A
C1499      H1512   1.077       .  S
C1500      C1506   1.434       .  A
C1500      C1501   1.424       .  A
C1501      C1503   1.401       .  A
C1501      C1502   1.415       .  A
C1502      H1513   1.084       .  S
C1503      C1504   1.395       .  A
C1503      H1514   1.084       .  S
C1504      C1505   1.402       .  A
C1504      H1515   1.084       .  S
C1505      C1506   1.422       .  A
C1505      C1510   1.414       .  A
C1506      C1507   1.414       .  A
C1507      C1508   1.395       .  A
C1507      H1516   1.077       .  S
C1508      C1509   1.403       .  A
C1508      H1517   1.083       .  S
C1509      C1510   1.407       .  A
C1510      H1518   1.084       .  S
C1519      C1520   1.403       .  A
C1519      C1524   1.402       .  A
C1520      C1521   1.400       .  A
C1520      H1533   1.083       .  S
C1521      C1522   1.415       .  A
C1521      H1534   1.078       .  S
C1522      C1528   1.432       .  A
C1522      C1523   1.422       .  A
C1523      C1525   1.398       .  A
C1523      C1524   1.403       .  A
C1524      H1535   1.085       .  S
C1525      C1526   1.388       .  A
C1525      H1536   1.084       .  S
C1526      C1527   1.399       .  A
C1526      H1537   1.084       .  S
C1527      C1528   1.421       .  A
C1527      C1532   1.402   1_554  A
C1528      C1529   1.417       .  A
C1529      C1530   1.402   1_554  A
C1529      H1538   1.078       .  S
C1530      C1531   1.400       .  A
C1530      H1539   1.083       .  S
C1531      C1532   1.402       .  A
C1532      H1540   1.085       .  S
C1541      C1542   1.395       .  A
C1541      C1546   1.401       .  A
C1542      C1543   1.392       .  A
C1542      H1555   1.084       .  S
C1543      C1544   1.416       .  A
C1543      H1556   1.076       .  S
C1544      C1550   1.430       .  A
C1544      C1545   1.423       .  A
C1545      C1547   1.401       .  A
C1545      C1546   1.410       .  A
C1546      H1557   1.085       .  S
C1547      C1548   1.395       .  A
C1547      H1558   1.084       .  S
C1548      C1549   1.402       .  A
C1548      H1559   1.084       .  S
C1549      C1550   1.424       .  A
C1549      C1554   1.415       .  A
C1550      C1551   1.412       .  A
C1551      C1552   1.391       .  A
C1551      H1560   1.076       .  S
C1552      C1553   1.398       .  A
C1552      H1561   1.084       .  S
C1553      C1554   1.404       .  A
C1554      H1562   1.084       .  S
C1563      C1564   1.401       .  A
C1563      C1568   1.399       .  A
C1564      C1565   1.406       .  A
C1564      H1577   1.083       .  S
C1565      C1566   1.419       .  A
C1565      H1578   1.078       .  S
C1566      C1572   1.436   1_565  A
C1566      C1567   1.423       .  A
C1567      C1569   1.397       .  A
C1567      C1568   1.401       .  A
C1568      H1579   1.085       .  S
C1569      C1570   1.385   1_565  A
C1569      H1580   1.084       .  S
C1570      C1571   1.398       .  A
C1570      H1581   1.084       .  S
C1571      C1572   1.423       .  A
C1571      C1576   1.400       .  A
C1572      C1573   1.419       .  A
C1573      C1574   1.407       .  A
C1573      H1582   1.078       .  S
C1574      C1575   1.402       .  A
C1574      H1583   1.083       .  S
C1575      C1576   1.400       .  A
C1576      H1584   1.085       .  S
