geometry optimzed in LAMMPS
_audit_creation_date              2020-11-30 
_audit_creation_method            'lammps2cif' 
_symmetry_space_group_name_H-M    'P1' 
_symmetry_Int_Tables_number       1 
_symmetry_cell_setting            triclinic 
loop_ 
_symmetry_equiv_pos_as_xyz 
  x,y,z 
_cell_length_a                    61.6861533 
_cell_length_b                    61.760002647040245 
_cell_length_c                    62.318591065781334 
_cell_angle_alpha                 89.56637415937534 
_cell_angle_beta                  90.12640182608656 
_cell_angle_gamma                 90.01944591435793 
loop_ 
_atom_site_label 
_atom_site_type_symbol 
_atom_site_fract_x 
_atom_site_fract_y 
_atom_site_fract_z 
_atom_site_charge 
O1          O  0.52253377  0.09450301  0.52410462    -0.73200
O2          O  0.47670262  0.09128268  0.47788265    -0.74200
O3          O  0.47664601  0.09053941  0.52377530    -0.62800
O4          O  0.52285241  0.09530642  0.47831449    -0.71300
O5          O  0.52555755  0.05946001  0.47839181    -0.70800
O6          O  0.47993473  0.05475169  0.52342249    -0.62100
O7          O  0.48000969  0.05547841  0.47791378    -0.74600
O8          O  0.52540203  0.05869573  0.52362103    -0.73300
Cu9        Cu  0.49953461  0.09421345  0.50100818     1.04600
Cu10       Cu  0.50279113  0.05590078  0.50080349     1.04300
C11         C  0.53112103  0.07699705  0.53116027     0.93000
C12         C  0.47132328  0.07275984  0.47053136     0.92100
C13         C  0.47125602  0.07184744  0.53092641     0.84200
C14         C  0.53162431  0.07796493  0.47139422     0.90500
O15         O  0.14044414  0.39141081  0.51785469    -0.73200
O16         O  0.14722678  0.43560820  0.47102812    -0.74200
O17         O  0.14709926  0.38953595  0.47348814    -0.62800
O18         O  0.14020167  0.43696008  0.51584257    -0.71300
O19         O  0.17562984  0.43856080  0.52054886    -0.70800
O20         O  0.18269506  0.38947028  0.47838401    -0.62100
O21         O  0.18294492  0.43576484  0.47561663    -0.74600
O22         O  0.17596598  0.39171487  0.52326968    -0.73300
Cu23       Cu  0.14258205  0.41344115  0.49437402     1.04600
Cu24       Cu  0.18060384  0.41394083  0.49972127     1.04300
C25         C  0.15718783  0.38399729  0.52745759     0.93000
C26         C  0.16602514  0.44259468  0.46586962     0.92100
C27         C  0.16573929  0.38157662  0.46952070     0.84200
C28         C  0.15661965  0.44568825  0.52469694     0.90500
O29         O  0.52914781  0.77197075  0.48230608    -0.73200
O30         O  0.48932078  0.76742759  0.53209794    -0.74200
O31         O  0.53495076  0.76973098  0.52714467    -0.62800
O32         O  0.48380163  0.76922153  0.48703687    -0.71300
O33         O  0.48550476  0.73334701  0.48551044    -0.70800
O34         O  0.53685844  0.73386668  0.52577316    -0.62100
O35         O  0.49090898  0.73156100  0.53129860    -0.74600
O36         O  0.53100735  0.73620351  0.48016026    -0.73300
Cu37       Cu  0.50921263  0.77076954  0.50725244     1.04600
Cu38       Cu  0.51110690  0.73242849  0.50568605     1.04300
C39         C  0.53618508  0.75501377  0.47310045     0.93000
C40         C  0.48387857  0.74901696  0.53976022     0.92100
C41         C  0.54411904  0.75194966  0.53257891     0.84200
C42         C  0.47691117  0.75125206  0.47960322     0.90500
O43         O  0.81176642  0.44528346  0.52763380    -0.73200
O44         O  0.81785196  0.39923228  0.48257089    -0.74200
O45         O  0.81423929  0.39930787  0.52908287    -0.62800
O46         O  0.81644592  0.44584069  0.48237686    -0.71300
O47         O  0.85215333  0.44687546  0.48637020    -0.70800
O48         O  0.84994533  0.39997244  0.52965845    -0.62100
O49         O  0.85362623  0.40128172  0.48493023    -0.74600
O50         O  0.84756513  0.44565586  0.53142078    -0.73300
Cu51       Cu  0.81373476  0.42223142  0.50520352     1.04600
Cu52       Cu  0.85195955  0.42344236  0.50816436     1.04300
C53         C  0.82879685  0.45274833  0.53655203     0.93000
C54         C  0.83664599  0.39308282  0.47649475     0.92100
C55         C  0.83221475  0.39284759  0.53727588     0.84200
C56         C  0.83490238  0.45416780  0.47771854     0.90500
O57         O  0.52025217  0.44119603  0.15016707    -0.73200
O58         O  0.47666903  0.39335379  0.14750785    -0.74200
O59         O  0.47467308  0.43893162  0.14733505    -0.62800
O60         O  0.52238170  0.39538671  0.15034711    -0.71300
O61         O  0.52032790  0.39472685  0.18592120    -0.70800
O62         O  0.47224841  0.43910743  0.18284810    -0.62100
O63         O  0.47416639  0.39294063  0.18301385    -0.74600
O64         O  0.51855569  0.44124596  0.18573630    -0.73300
Cu65       Cu  0.49861035  0.41720931  0.14768053     1.04600
Cu66       Cu  0.49629155  0.41699078  0.18569610     1.04300
C67         C  0.52613457  0.44899436  0.16818377     0.93000
C68         C  0.46834530  0.38569833  0.16470136     0.92100
C69         C  0.46585579  0.44589829  0.16445523     0.84200
C70         C  0.52875362  0.38799244  0.16846778     0.90500
O71         O  0.52363542  0.39274836  0.82047656    -0.73200
O72         O  0.48023967  0.44139159  0.81424950    -0.74200
O73         O  0.52688684  0.43880791  0.81829551    -0.62800
O74         O  0.47737348  0.39535045  0.81683700    -0.71300
O75         O  0.47533347  0.39707962  0.85226640    -0.70800
O76         O  0.52338626  0.44038493  0.85362646    -0.62100
O77         O  0.47770919  0.44271725  0.84976815    -0.74600
O78         O  0.52080660  0.39479803  0.85592993    -0.73300
Cu79       Cu  0.50216192  0.41706846  0.81614576     1.04600
Cu80       Cu  0.49923531  0.41886399  0.85404140     1.04300
C81         C  0.52881828  0.38603384  0.83924972     0.93000
C82         C  0.47189207  0.44938297  0.83119282     0.92100
C83         C  0.53311238  0.44616411  0.83645832     0.84200
C84         C  0.46858350  0.38937050  0.83451787     0.90500
O85         O  0.02328844  0.55804832  0.02620918    -0.73200
O86         O  0.97688202  0.56107712  0.98159783    -0.74200
O87         O  0.02202428  0.55456783  0.98137941    -0.62800
O88         O  0.97785788  0.56495881  0.02708582    -0.71300
O89         O  0.98204638  0.60052574  0.02366214    -0.70800
O90         O  0.02740458  0.59001148  0.97881513    -0.62100
O91         O  0.98197633  0.59647797  0.97790051    -0.74600
O92         O  0.02765967  0.59331513  0.02440002    -0.73300
Cu93       Cu  0.99974651  0.55848825  0.00424967     1.04600
Cu94       Cu  0.00492023  0.59635906  0.00113703     1.04300
C95         C  0.03320727  0.57500183  0.03236629     0.93000
C96         C  0.97253330  0.57899138  0.97218533     0.92100
C97         C  0.03164865  0.57074794  0.97280981     0.84200
C98         C  0.97303419  0.58423721  0.03265773     0.90500
O99         O  0.66865172  0.90450536  0.97871394    -0.73200
O100        O  0.67327063  0.94862077  0.02576823    -0.74200
O101        O  0.67446247  0.90293579  0.02505108    -0.62800
O102        O  0.66693530  0.95013660  0.98016617    -0.71300
O103        O  0.63138357  0.94751936  0.98401570    -0.70800
O104        O  0.63882025  0.90239764  0.02954605    -0.62100
O105        O  0.63754434  0.94785431  0.02962919    -0.74600
O106        O  0.63327126  0.90221036  0.98401662    -0.73300
Cu107      Cu  0.67210760  0.92653855  0.00224528     1.04600
Cu108      Cu  0.63406885  0.92494116  0.00693926     1.04300
C109        C  0.65015440  0.89685464  0.97344673     0.93000
C110        C  0.65616722  0.95486177  0.03542677     0.92100
C111        C  0.65769942  0.89600728  0.03507310     0.84200
C112        C  0.64776606  0.95585582  0.97464706     0.90500
O113        O  0.97400127  0.23677578  0.02295616    -0.73200
O114        O  0.02268525  0.23427185  0.97968053    -0.74200
O115        O  0.02080491  0.23369658  0.02534325    -0.62800
O116        O  0.97631089  0.23741683  0.97748927    -0.71300
O117        O  0.97896057  0.27324419  0.97822511    -0.70800
O118        O  0.02284120  0.26953279  0.02530622    -0.62100
O119        O  0.02465821  0.27015308  0.98028160    -0.74600
O120        O  0.97666074  0.27261276  0.02318592    -0.73300
Cu121      Cu  0.99837094  0.23421882  0.00141427     1.04600
Cu122      Cu  0.00086527  0.27255258  0.00181716     1.04300
C123        C  0.96714268  0.25523455  0.02917878     0.93000
C124        C  0.03148330  0.25196886  0.97342163     0.92100
C125        C  0.02926788  0.25117881  0.03242858     0.84200
C126        C  0.97054287  0.25608862  0.97052816     0.90500
O127        O  0.33056521  0.94016301  0.01453889    -0.73200
O128        O  0.32265615  0.89147915  0.97213527    -0.74200
O129        O  0.32855241  0.89359429  0.01755104    -0.62800
O130        O  0.32408708  0.93729201  0.96924603    -0.71300
O131        O  0.35990892  0.93642188  0.96596477    -0.70800
O132        O  0.36410426  0.89116298  0.01261998    -0.62100
O133        O  0.35829956  0.89060748  0.96792730    -0.74600
O134        O  0.36604122  0.93701717  0.01138492    -0.73300
Cu135      Cu  0.32519026  0.91572764  0.99362341     1.04600
Cu136      Cu  0.36328411  0.91383152  0.98935251     1.04300
C137        C  0.34967674  0.94629548  0.01974776     0.93000
C138        C  0.33947235  0.88352962  0.96317230     0.92100
C139        C  0.34686530  0.88503028  0.02219916     0.84200
C140        C  0.34139076  0.94346645  0.95981560     0.90500
O141        O  0.02159639  0.93820165  0.62792184    -0.73200
O142        O  0.97911050  0.88943831  0.63000471    -0.74200
O143        O  0.97603347  0.93521975  0.63072456    -0.62800
O144        O  0.02471360  0.89235226  0.62752187    -0.71300
O145        O  0.02730747  0.89210117  0.66304930    -0.70800
O146        O  0.97768591  0.93426259  0.66624465    -0.62100
O147        O  0.98153782  0.88828059  0.66551246    -0.74600
O148        O  0.02374579  0.93816957  0.66350597    -0.73300
Cu149      Cu  0.00033645  0.91382297  0.62783771     1.04600
Cu150      Cu  0.00269034  0.91319750  0.66585001     1.04300
C151        C  0.02915763  0.94607839  0.64526486     0.93000
C152        C  0.97355381  0.88113026  0.64798629     0.92100
C153        C  0.96904084  0.94146964  0.64895111     0.84200
C154        C  0.03348127  0.88522888  0.64477263     0.90500
O155        O  0.97607317  0.93518414  0.33200525    -0.73200
O156        O  0.02248004  0.88987184  0.32701999    -0.74200
O157        O  0.97639875  0.88918670  0.32841118    -0.62800
O158        O  0.02276896  0.93548501  0.33127647    -0.71300
O159        O  0.02183384  0.93336136  0.36648799    -0.70800
O160        O  0.97852129  0.88599326  0.36387354    -0.62100
O161        O  0.02408058  0.88783807  0.36255562    -0.74600
O162        O  0.97628857  0.93126600  0.36743251    -0.73300
Cu163      Cu  0.99936180  0.91262534  0.32837245     1.04600
Cu164      Cu  0.00021854  0.90953289  0.36625146     1.04300
C165        C  0.96859976  0.94006669  0.35046105     0.93000
C166        C  0.03063828  0.88176984  0.34411141     0.92100
C167        C  0.97053304  0.88008039  0.34597315     0.84200
C168        C  0.02988087  0.94165780  0.34953868     0.90500
N169        N  0.70388494  0.78130255  0.66266567    -0.27600
N170        N  0.69490470  0.76321130  0.65568883    -0.35400
C171        C  0.70110025  0.74682794  0.66875631     0.00800
C172        C  0.71412572  0.75508776  0.68501162     0.06800
C173        C  0.71536190  0.77702264  0.68051647    -0.06300
H174        H  0.69533988  0.73032444  0.66736904     0.07400
H175        H  0.72274058  0.78935617  0.69035333     0.08600
Cu176      Cu  0.67096965  0.76249980  0.63169632     0.44200
Cu177      Cu  0.69894785  0.81190730  0.64985870     0.42000
Cu178      Cu  0.65376583  0.81704055  0.61592121     0.43900
N179        N  0.64459903  0.76897852  0.61126688    -0.35000
N180        N  0.63845799  0.78892997  0.60627932    -0.29200
C181        C  0.62134888  0.78815338  0.59299528    -0.05300
C182        C  0.61630500  0.76676220  0.58922197     0.06900
C183        C  0.63133360  0.75492140  0.60110354     0.00700
H184        H  0.61345218  0.80223221  0.58608163     0.08300
H185        H  0.63279602  0.73752154  0.60190601     0.07400
N186        N  0.67245186  0.84338528  0.62458426    -0.36400
N187        N  0.68978921  0.84142077  0.63688082    -0.28600
C188        C  0.69893221  0.86102517  0.63941267    -0.03800
C189        C  0.68661877  0.87606515  0.62817767     0.04800
C190        C  0.66994608  0.86429668  0.61900174     0.02900
H191        H  0.71332590  0.86411468  0.64883083     0.08000
H192        H  0.65689633  0.87050887  0.60906699     0.06800
N193        N  0.69466837  0.06322064  0.65924183    -0.27600
N194        N  0.67824780  0.07689387  0.65727022    -0.35400
C195        C  0.68110190  0.09331183  0.67101032     0.00800
C196        C  0.70036388  0.09009062  0.68198040     0.06800
C197        C  0.70854037  0.07084652  0.67408735    -0.06300
H198        H  0.66996098  0.10670826  0.67281887     0.07400
H199        H  0.72346443  0.06290145  0.67885191     0.08600
Cu200      Cu  0.65278483  0.07379383  0.63565639     0.44200
Cu201      Cu  0.69697939  0.03401151  0.64292316     0.42000
Cu202      Cu  0.65318510  0.02474724  0.60594102     0.43900
N203        N  0.63002075  0.06703728  0.61206015    -0.35000
N204        N  0.63043396  0.04876512  0.60117776    -0.29200
C205        C  0.61376663  0.04847109  0.58733451    -0.05300
C206        C  0.60232226  0.06750218  0.58949716     0.06900
C207        C  0.61302775  0.07901664  0.60528457     0.00700
H208        H  0.61017049  0.03528523  0.57650507     0.08300
H209        H  0.60870935  0.09474414  0.61147928     0.07400
N210        N  0.67526172  0.00122089  0.61470690    -0.36400
N211        N  0.69163811  0.00443342  0.62800877    -0.28600
C212        C  0.70127612  0.98527425  0.63214625    -0.03800
C213        C  0.69018571  0.96926867  0.62109857     0.04800
C214        C  0.67389473  0.98006032  0.61018050     0.02900
H215        H  0.71442832  0.98297304  0.64344255     0.08000
H216        H  0.66101903  0.97283512  0.60078905     0.06800
N217        N  0.84916375  0.59028398  0.68436654    -0.27600
N218        N  0.83597585  0.59244704  0.66771008    -0.35400
C219        C  0.82017519  0.60653325  0.67277450     0.00800
C220        C  0.82290731  0.61301352  0.69392315     0.06800
C221        C  0.84139215  0.60205611  0.70069435    -0.06300
H222        H  0.80757545  0.61162409  0.66173462     0.07400
H223        H  0.84887774  0.60266704  0.71640928     0.08600
Cu224      Cu  0.83795258  0.57413972  0.63972927     0.44200
Cu225      Cu  0.87910563  0.57449263  0.68382280     0.42000
Cu226      Cu  0.88911609  0.54833174  0.63440620     0.43900
N227        N  0.84374415  0.55019880  0.61696924    -0.35000
N228        N  0.86311323  0.54132689  0.61503561    -0.29200
C229        C  0.86213571  0.52502482  0.60102370    -0.05300
C230        C  0.84107492  0.52319643  0.59382650     0.06900
C231        C  0.82973168  0.53947594  0.60418065     0.00700
H232        H  0.87549893  0.51426854  0.59746528     0.08300
H233        H  0.81245821  0.54238795  0.60350313     0.07400
N234        N  0.91293063  0.55303936  0.65698365    -0.36400
N235        N  0.90962297  0.56251017  0.67561968    -0.28600
C236        C  0.92873818  0.56380328  0.68613147    -0.03800
C237        C  0.94461581  0.55450523  0.67338291     0.04800
C238        C  0.93394923  0.54791468  0.65509556     0.02900
H239        H  0.93102232  0.57142116  0.70153849     0.08000
H240        H  0.94109106  0.54048670  0.64110172     0.06800
N241        N  0.13545395  0.58064429  0.67565517    -0.27600
N242        N  0.14743581  0.58162701  0.65810895    -0.35400
C243        C  0.16501266  0.59392878  0.66191455     0.00800
C244        C  0.16450971  0.60062968  0.68309365     0.06800
C245        C  0.14558605  0.59161035  0.69128237    -0.06300
H246        H  0.17719172  0.59768597  0.65001673     0.07400
H247        H  0.13943935  0.59308776  0.70744789     0.08600
Cu248      Cu  0.14130560  0.56380059  0.63075036     0.44200
Cu249      Cu  0.10463006  0.56673843  0.67728860     0.42000
Cu250      Cu  0.09201826  0.53269034  0.63338816     0.43900
N251        N  0.13464164  0.53819697  0.61050355    -0.35000
N252        N  0.11676003  0.52650886  0.61210586    -0.29200
C253        C  0.11757317  0.51025851  0.59799380    -0.05300
C254        C  0.13687562  0.51174600  0.58693047     0.06900
C255        C  0.14738700  0.52964310  0.59522352     0.00700
H256        H  0.10503132  0.49817111  0.59596515     0.08300
H257        H  0.16311380  0.53582927  0.59067462     0.07400
N258        N  0.06899062  0.54246679  0.65519221    -0.36400
N259        N  0.07341593  0.55493358  0.67175851    -0.28600
C260        C  0.05475210  0.55947565  0.68202467    -0.03800
C261        C  0.03783471  0.54938410  0.67125562     0.04800
C262        C  0.04755824  0.53879786  0.65434884     0.02900
H263        H  0.05349432  0.56989212  0.69583474     0.08000
H264        H  0.03951075  0.52972570  0.64182888     0.06800
N265        N  0.66499616  0.60514415  0.86036779    -0.27600
N266        N  0.66281378  0.59000616  0.84561102    -0.35400
C267        C  0.67397229  0.59597484  0.82799086     0.00800
C268        C  0.68332124  0.61608642  0.83149742     0.06800
C269        C  0.67696596  0.62142222  0.85217142    -0.06300
H270        H  0.67553790  0.58607744  0.81383768     0.07400
H271        H  0.68126571  0.63588138  0.86093013     0.08600
Cu272      Cu  0.64400862  0.56220706  0.84934832     0.44200
Cu273      Cu  0.65476111  0.60173934  0.89216638     0.42000
Cu274      Cu  0.61977201  0.55622017  0.90127265     0.43900
N275        N  0.62091105  0.53859301  0.85637347    -0.35000
N276        N  0.61151284  0.53711636  0.87536085    -0.29200
C277        C  0.59674915  0.52113824  0.87497875    -0.05300
C278        C  0.59685695  0.51189858  0.85481951     0.06900
C279        C  0.61241633  0.52339407  0.84339807     0.00700
H280        H  0.58666835  0.51652063  0.88845423     0.08300
H281        H  0.61717412  0.52093108  0.82689875     0.07400
N282        N  0.63325379  0.57410376  0.92587641    -0.36400
N283        N  0.64642791  0.59072682  0.92285390    -0.28600
C284        C  0.65399631  0.59721631  0.94210625    -0.03800
C285        C  0.64507933  0.58398949  0.95790945     0.04800
C286        C  0.63195052  0.56966489  0.94695801     0.02900
H287        H  0.66569505  0.61005925  0.94437678     0.08000
H288        H  0.62265020  0.55641950  0.95380425     0.06800
N289        N  0.67677097  0.59173435  0.14739749    -0.27600
N290        N  0.66365670  0.58697059  0.16353103    -0.35400
C291        C  0.67103630  0.59680144  0.18131284     0.00800
C292        C  0.69001830  0.60786742  0.17637735     0.06800
C293        C  0.69318209  0.60399074  0.15471974    -0.06300
H294        H  0.66296379  0.59612142  0.19670951     0.07400
H295        H  0.70627060  0.61002772  0.14477857     0.08600
Cu296      Cu  0.63709720  0.56607115  0.16131620     0.44200
Cu297      Cu  0.67050732  0.58451960  0.11541364     0.42000
Cu298      Cu  0.62396019  0.55150060  0.10707136     0.43900
N299        N  0.61474565  0.54184445  0.15377023    -0.35000
N300        N  0.61053027  0.53642725  0.13370687    -0.29200
C301        C  0.59591350  0.52032862  0.13356511    -0.05300
C302        C  0.59036983  0.51535523  0.15451170     0.06900
C303        C  0.60268615  0.52928907  0.16698163     0.00700
H304        H  0.58931185  0.51312384  0.11917328     0.08300
H305        H  0.60251172  0.53054166  0.18428531     0.07400
N306        N  0.63997625  0.56714818  0.08223198    -0.36400
N307        N  0.65745166  0.57918018  0.08509011    -0.28600
C308        C  0.66427439  0.58661862  0.06585360    -0.03800
C309        C  0.65037334  0.57878711  0.05023964     0.04800
C310        C  0.63521848  0.56651482  0.06119698     0.02900
H311        H  0.67844918  0.59664938  0.06338369     0.08000
H312        H  0.62189049  0.55745162  0.05430877     0.06800
N313        N  0.86223524  0.58874126  0.32475128    -0.27600
N314        N  0.84893850  0.59006094  0.34127588    -0.35400
C315        C  0.83197388  0.60259863  0.33583746     0.00800
C316        C  0.83381304  0.60868350  0.31440849     0.06800
C317        C  0.85331704  0.59938854  0.30798502    -0.06300
H318        H  0.81907733  0.60666157  0.34679652     0.07400
H319        H  0.86051761  0.60006608  0.29219931     0.08600
Cu320      Cu  0.85179908  0.57136238  0.36898759     0.44200
Cu321      Cu  0.89331591  0.57531604  0.32691805     0.42000
Cu322      Cu  0.90362134  0.54696015  0.37654150     0.43900
N323        N  0.85722337  0.54663590  0.39115193    -0.35000
N324        N  0.87657246  0.53782763  0.39378953    -0.29200
C325        C  0.87531083  0.52193646  0.40851527    -0.05300
C326        C  0.85412795  0.52052868  0.41545747     0.06900
C327        C  0.84299251  0.53640145  0.40413090     0.00700
H328        H  0.88884989  0.51200975  0.41373915     0.08300
H329        H  0.82592429  0.54021333  0.40524229     0.07400
N330        N  0.92796697  0.55697892  0.35608694    -0.36400
N331        N  0.92445436  0.56705982  0.33761242    -0.28600
C332        C  0.94375992  0.57205999  0.32872994    -0.03800
C333        C  0.96007967  0.56475472  0.34234047     0.04800
C334        C  0.94941464  0.55521329  0.35943543     0.02900
H335        H  0.94578633  0.58087759  0.31381867     0.08000
H336        H  0.95673445  0.54781778  0.37351319     0.06800
N337        N  0.15170404  0.59552458  0.32939577    -0.27600
N338        N  0.16791669  0.58210104  0.33355431    -0.35400
C339        C  0.18586075  0.58935241  0.32356732     0.00800
C340        C  0.18093448  0.60848189  0.31283222     0.06800
C341        C  0.15915310  0.61195769  0.31717146    -0.06300
H342        H  0.20111933  0.58071333  0.32329324     0.07400
H343        H  0.14907850  0.62486935  0.31078106     0.08600
Cu344      Cu  0.16500294  0.55384392  0.35168625     0.44200
Cu345      Cu  0.11922317  0.58871884  0.33620454     0.42000
Cu346      Cu  0.11067623  0.53446171  0.35622128     0.43900
N347        N  0.15662453  0.52729754  0.37061759    -0.35000
N348        N  0.13650065  0.52006022  0.37192255    -0.29200
C349        C  0.13560155  0.50399660  0.38654896    -0.05300
C350        C  0.15615685  0.50091656  0.39479638     0.06900
C351        C  0.16913005  0.51598165  0.38445192     0.00700
H352        H  0.12086435  0.49591897  0.39161212     0.08300
H353        H  0.18610686  0.51914730  0.38747481     0.07400
N354        N  0.08600065  0.55391318  0.34461409    -0.36400
N355        N  0.08863918  0.57423906  0.33830638    -0.28600
C356        C  0.06899983  0.58275590  0.33373804    -0.03800
C357        C  0.05346217  0.56686968  0.33720272     0.04800
C358        C  0.06482960  0.54890033  0.34411142     0.02900
H359        H  0.06619227  0.59932827  0.32874990     0.08000
H360        H  0.05808161  0.53354230  0.34935720     0.06800
N361        N  0.66802057  0.77904953  0.31585269    -0.27600
N362        N  0.66292756  0.76386163  0.33001049    -0.35400
C363        C  0.67348867  0.74555519  0.32519216     0.00800
C364        C  0.68554268  0.74909428  0.30681439     0.06800
C365        C  0.68148142  0.77051870  0.30122212    -0.06300
H366        H  0.67289348  0.73088469  0.33480172     0.07400
H367        H  0.68844545  0.77952498  0.28793806     0.08600
Cu368      Cu  0.64208809  0.76823573  0.35541993     0.44200
Cu369      Cu  0.65940503  0.81136789  0.31930675     0.42000
Cu370      Cu  0.63049159  0.82288229  0.36898264     0.43900
N371        N  0.62089360  0.77642429  0.37954590    -0.35000
N372        N  0.61734818  0.79665517  0.38523070    -0.29200
C373        C  0.60289756  0.79684587  0.40132518    -0.05300
C374        C  0.59677468  0.77568459  0.40572631     0.06900
C375        C  0.60850842  0.76316263  0.39155599     0.00700
H376        H  0.59687167  0.81132526  0.40886454     0.08300
H377        H  0.60779478  0.74581018  0.38978748     0.07400
N378        N  0.64226740  0.84639800  0.34820752    -0.36400
N379        N  0.65254512  0.84240240  0.33003830    -0.28600
C380        C  0.65795221  0.86135908  0.32064210    -0.03800
C381        C  0.65058494  0.87790533  0.33352080     0.04800
C382        C  0.64073691  0.86790816  0.35078975     0.02900
H383        H  0.66667802  0.86295924  0.30567540     0.08000
H384        H  0.63309936  0.87570175  0.36431038     0.06800
N385        N  0.68357327  0.06826188  0.33100976    -0.27600
N386        N  0.67570390  0.08286480  0.34435176    -0.35400
C387        C  0.68495896  0.10209933  0.34015601     0.00800
C388        C  0.69923361  0.09951535  0.32338833     0.06800
C389        C  0.69802980  0.07792732  0.31792093    -0.06300
H390        H  0.68084323  0.11710733  0.34808662     0.07400
H391        H  0.70641642  0.07000958  0.30490177     0.08600
Cu392      Cu  0.65085832  0.07750774  0.36602212     0.44200
Cu393      Cu  0.67338567  0.03623345  0.33011438     0.42000
Cu394      Cu  0.62614062  0.02571651  0.36283540     0.43900
N395        N  0.62339551  0.06937338  0.38330893    -0.35000
N396        N  0.61403598  0.05021949  0.38163143    -0.29200
C397        C  0.59694554  0.04929094  0.39489014    -0.05300
C398        C  0.59543490  0.06884079  0.40534328     0.06900
C399        C  0.61246375  0.08124320  0.39772781     0.00700
H400        H  0.58680570  0.03513537  0.39731175     0.08300
H401        H  0.61693673  0.09738703  0.40273075     0.07400
N402        N  0.64239262  0.00220235  0.34592656    -0.36400
N403        N  0.65969334  0.00574642  0.33392017    -0.28600
C404        C  0.66661566  0.98672566  0.32600484    -0.03800
C405        C  0.65295839  0.97056249  0.33349946     0.04800
C406        C  0.63787804  0.98096724  0.34607736     0.02900
H407        H  0.68065433  0.98478555  0.31583073     0.08000
H408        H  0.62477968  0.97356080  0.35504995     0.06800
N409        N  0.85235530  0.24175994  0.67681993    -0.27600
N410        N  0.84033616  0.25927765  0.67919749    -0.35400
C411        C  0.82466038  0.25484460  0.69357377     0.00800
C412        C  0.82611868  0.23314421  0.69975803     0.06800
C413        C  0.84386735  0.22552466  0.68847043    -0.06300
H414        H  0.81292957  0.26666482  0.69882838     0.07400
H415        H  0.85023222  0.20918535  0.68847710     0.08600
Cu416      Cu  0.84286914  0.28664764  0.65927164     0.44200
Cu417      Cu  0.88200471  0.24105347  0.66147402     0.42000
Cu418      Cu  0.89071655  0.28410549  0.62623168     0.43900
N419        N  0.84724705  0.30570244  0.63163862    -0.35000
N420        N  0.86451829  0.30345231  0.61933329    -0.29200
C421        C  0.86310992  0.31696139  0.60251285    -0.05300
C422        C  0.84417046  0.32864621  0.60417485     0.06900
C423        C  0.83434215  0.32109971  0.62284036     0.00700
H424        H  0.87553457  0.31886613  0.59039285     0.08300
H425        H  0.81933322  0.32674711  0.62975110     0.07400
N426        N  0.91589609  0.26600902  0.63829847    -0.36400
N427        N  0.91283529  0.24971377  0.65175315    -0.28600
C428        C  0.93217147  0.24314155  0.65945150    -0.03800
C429        C  0.94804027  0.25602681  0.65024374     0.04800
C430        C  0.93715637  0.27024707  0.63685490     0.02900
H431        H  0.93438809  0.23091201  0.67179891     0.08000
H432        H  0.94407853  0.28359996  0.62779154     0.06800
N433        N  0.13751417  0.24274853  0.67628070    -0.27600
N434        N  0.15088851  0.24235806  0.65974378    -0.35400
C435        C  0.16806325  0.22998504  0.66491874     0.00800
C436        C  0.16606787  0.22308438  0.68611292     0.06800
C437        C  0.14645449  0.23174102  0.69271564    -0.06300
H438        H  0.18119654  0.22661546  0.65399977     0.07400
H439        H  0.13914140  0.23041677  0.70841562     0.08600
Cu440      Cu  0.14777280  0.26191779  0.63245822     0.44200
Cu441      Cu  0.10622017  0.25488143  0.67528819     0.42000
Cu442      Cu  0.09647596  0.28814177  0.63013833     0.43900
N443        N  0.14119087  0.28759856  0.61147961    -0.35000
N444        N  0.12199371  0.29706665  0.61118458    -0.29200
C445        C  0.12204059  0.31341012  0.59697635    -0.05300
C446        C  0.14227146  0.31451428  0.58782687     0.06900
C447        C  0.15419646  0.29797091  0.59735340     0.00700
H448        H  0.10832768  0.32390448  0.59368584     0.08300
H449        H  0.17097150  0.29392917  0.59438004     0.07400
N450        N  0.07196375  0.27577316  0.64850370    -0.36400
N451        N  0.07520418  0.26310099  0.66535494    -0.28600
C452        C  0.05587817  0.25592902  0.67249802    -0.03800
C453        C  0.03995943  0.26479788  0.65944308     0.04800
C454        C  0.05068678  0.27725755  0.64447078     0.02900
H455        H  0.05363798  0.24469782  0.68570581     0.08000
H456        H  0.04360343  0.28612538  0.63112145     0.06800
N457        N  0.34029374  0.76400995  0.68851120    -0.27600
N458        N  0.34588632  0.74856866  0.67502965    -0.35400
C459        C  0.33382224  0.73089726  0.67915451     0.00800
C460        C  0.32031680  0.73518642  0.69638543     0.06800
C461        C  0.32519033  0.75628210  0.70204783    -0.06300
H462        H  0.33437002  0.71622346  0.66978125     0.07400
H463        H  0.31758949  0.76575139  0.71448231     0.08600
Cu464      Cu  0.36955078  0.75198230  0.65150191     0.44200
Cu465      Cu  0.34899342  0.79621615  0.68493710     0.42000
Cu466      Cu  0.38495690  0.80702224  0.64106010     0.43900
N467        N  0.39412203  0.76052453  0.63025819    -0.35000
N468        N  0.39909557  0.78092521  0.62609707    -0.29200
C469        C  0.41505862  0.78162613  0.61154354    -0.05300
C470        C  0.42088343  0.76064954  0.60651332     0.06900
C471        C  0.40722697  0.74761827  0.61871190     0.00700
H472        H  0.42210231  0.79640994  0.60522900     0.08300
H473        H  0.40697188  0.73015120  0.61934052     0.07400
N474        N  0.36798215  0.83085678  0.65680703    -0.36400
N475        N  0.35429123  0.82703997  0.67265242    -0.28600
C476        C  0.34428600  0.84567229  0.67778560    -0.03800
C477        C  0.35232382  0.86199726  0.66463581     0.04800
C478        C  0.36742181  0.85198130  0.65170012     0.02900
H479        H  0.33176046  0.84710609  0.68981049     0.08000
H480        H  0.37697730  0.85943484  0.63910003     0.06800
N481        N  0.32088000  0.05352652  0.66760072    -0.27600
N482        N  0.33668448  0.06795931  0.66728333    -0.35400
C483        C  0.33009517  0.08580663  0.67760048     0.00800
C484        C  0.30864813  0.08319228  0.68398002     0.06800
C485        C  0.30341553  0.06247816  0.67688242    -0.06300
H486        H  0.34053649  0.09961185  0.68048918     0.07400
H487        H  0.28796904  0.05415365  0.67845439     0.08600
Cu488      Cu  0.36541055  0.06413951  0.65027232     0.44200
Cu489      Cu  0.32535258  0.02090177  0.65991274     0.42000
Cu490      Cu  0.37818771  0.00976164  0.63784101     0.43900
N491        N  0.38928736  0.05597880  0.62821564    -0.35000
N492        N  0.39430446  0.03561006  0.62432333    -0.29200
C493        C  0.40888030  0.03485191  0.60841038    -0.05300
C494        C  0.41303809  0.05576633  0.60154829     0.06900
C495        C  0.40038815  0.06883188  0.61452677     0.00700
H496        H  0.41510819  0.02007854  0.60155008     0.08300
H497        H  0.39859940  0.08619067  0.61340343     0.07400
N498        N  0.35765058  0.98605032  0.64913679    -0.36400
N499        N  0.33810955  0.98964674  0.65704593    -0.28600
C500        C  0.32928086  0.97046256  0.66281184    -0.03800
C501        C  0.34404316  0.95426909  0.65807253     0.04800
C502        C  0.36173646  0.96473251  0.64943454     0.02900
H503        H  0.31336236  0.96844495  0.66979473     0.08000
H504        H  0.37652368  0.95735499  0.64365618     0.06800
N505        N  0.65839450  0.22398827  0.86522888    -0.27600
N506        N  0.65376668  0.23816820  0.84985902    -0.35400
C507        C  0.66492038  0.23305143  0.83209269     0.00800
C508        C  0.67700865  0.21454803  0.83611095     0.06800
C509        C  0.67231496  0.20921916  0.85732873    -0.06300
H510        H  0.66461576  0.24248094  0.81738306     0.07400
H511        H  0.67894230  0.19581657  0.86654520     0.08600
Cu512      Cu  0.63267994  0.26423450  0.85297832     0.44200
Cu513      Cu  0.64745205  0.22678418  0.89697816     0.42000
Cu514      Cu  0.61230569  0.27288063  0.90570126     0.43900
N515        N  0.61064740  0.28863208  0.85998043    -0.35000
N516        N  0.60327899  0.29167774  0.87961317    -0.29200
C517        C  0.58902998  0.30809809  0.87937069    -0.05300
C518        C  0.58718818  0.31576007  0.85854611     0.06900
C519        C  0.60115302  0.30306662  0.84661817     0.00700
H520        H  0.58030424  0.31378351  0.89327510     0.08300
H521        H  0.60381022  0.30391251  0.82948356     0.07400
N522        N  0.62384199  0.25327207  0.93018881    -0.36400
N523        N  0.63661414  0.23632253  0.92738848    -0.28600
C524        C  0.64173327  0.22796192  0.94683902    -0.03800
C525        C  0.63170984  0.24035648  0.96243921     0.04800
C526        C  0.62051804  0.25616499  0.95126347     0.02900
H527        H  0.65236256  0.21427297  0.94946885     0.08000
H528        H  0.61095271  0.26915334  0.95801106     0.06800
N529        N  0.66487114  0.23331772  0.14941507    -0.27600
N530        N  0.66438446  0.25089896  0.16135126    -0.35400
C531        C  0.67810533  0.24836714  0.17797630     0.00800
C532        C  0.68720571  0.22785261  0.17704169     0.06800
C533        C  0.67824617  0.21880791  0.15868474    -0.06300
H534        H  0.68099716  0.26060036  0.18996775     0.07400
H535        H  0.68116459  0.20274887  0.15248820     0.08600
Cu536      Cu  0.64262703  0.27608399  0.15661295     0.44200
Cu537      Cu  0.64902710  0.23073681  0.11996603     0.42000
Cu538      Cu  0.60779467  0.27087303  0.11049777     0.43900
N539        N  0.61540529  0.29519237  0.15159060    -0.35000
N540        N  0.60229550  0.29276981  0.13495767    -0.29200
C541        C  0.58600497  0.30712347  0.13638052    -0.05300
C542        C  0.58899529  0.31908317  0.15478819     0.06900
C543        C  0.60778145  0.31117281  0.16407761     0.00700
H544        H  0.57311320  0.30897823  0.12467781     0.08300
H545        H  0.61538270  0.31666401  0.17872443     0.07400
N546        N  0.61965570  0.25081324  0.08671645    -0.36400
N547        N  0.63494492  0.23613322  0.08995759    -0.28600
C548        C  0.64099883  0.22801372  0.07084705    -0.03800
C549        C  0.62882709  0.23806026  0.05493748     0.04800
C550        C  0.61553598  0.25239424  0.06558087     0.02900
H551        H  0.65413163  0.21668812  0.06859206     0.08000
H552        H  0.60462112  0.26412233  0.05834032     0.06800
N553        N  0.32657989  0.59283984  0.85312788    -0.27600
N554        N  0.32530619  0.57483712  0.84186298    -0.35400
C555        C  0.31074724  0.57767744  0.82600485     0.00800
C556        C  0.30321028  0.59887142  0.82646399     0.06800
C557        C  0.31375817  0.60789836  0.84397844    -0.06300
H558        H  0.30649285  0.56523209  0.81464482     0.07400
H559        H  0.31258802  0.62442053  0.84950721     0.08600
Cu560      Cu  0.34668523  0.54892850  0.84525054     0.44200
Cu561      Cu  0.34362083  0.59564402  0.88181847     0.42000
Cu562      Cu  0.37706718  0.54984310  0.89383957     0.43900
N563        N  0.37383827  0.52948211  0.85039269    -0.35000
N564        N  0.38442378  0.52960456  0.86882923    -0.29200
C565        C  0.40187854  0.51677632  0.86745610    -0.05300
C566        C  0.40276697  0.50842596  0.84697772     0.06900
C567        C  0.38463316  0.51673595  0.83654032     0.00700
H568        H  0.41364528  0.51450003  0.88015277     0.08300
H569        H  0.38015523  0.51444260  0.81993105     0.07400
N570        N  0.36887452  0.57268407  0.91626876    -0.36400
N571        N  0.35643537  0.58964232  0.91219179    -0.28600
C572        C  0.35147948  0.59927338  0.93089404    -0.03800
C573        C  0.36143341  0.58777234  0.94735246     0.04800
C574        C  0.37241065  0.57117409  0.93744981     0.02900
H575        H  0.34010277  0.61247685  0.93254348     0.08000
H576        H  0.38079762  0.55783099  0.94526366     0.06800
N577        N  0.32157966  0.59190389  0.13422259    -0.27600
N578        N  0.33414133  0.58542453  0.15021733    -0.35400
C579        C  0.32702135  0.59409389  0.16852614     0.00800
C580        C  0.30873990  0.60630174  0.16412013     0.06800
C581        C  0.30564368  0.60437159  0.14214890    -0.06300
H582        H  0.33502681  0.59211348  0.18388618     0.07400
H583        H  0.29321613  0.61208425  0.13246700     0.08600
Cu584      Cu  0.36025687  0.56487365  0.14730236     0.44200
Cu585      Cu  0.32928781  0.58672133  0.10227990     0.42000
Cu586      Cu  0.37837002  0.55410691  0.09481349     0.43900
N587        N  0.38341744  0.54173639  0.14109503    -0.35000
N588        N  0.39028206  0.53770700  0.12148432    -0.29200
C589        C  0.40448851  0.52122126  0.12229651    -0.05300
C590        C  0.40652129  0.51449101  0.14347183     0.06900
C591        C  0.39290127  0.52786775  0.15495288     0.00700
H592        H  0.41238530  0.51430225  0.10845858     0.08300
H593        H  0.38965387  0.52718874  0.17199422     0.07400
N594        N  0.36309293  0.57175724  0.07072574    -0.36400
N595        N  0.34518356  0.58328002  0.07316450    -0.28600
C596        C  0.33944314  0.59185966  0.05404109    -0.03800
C597        C  0.35455623  0.58546946  0.03902421     0.04800
C598        C  0.36917707  0.57268094  0.05007314     0.02900
H599        H  0.32504613  0.60143694  0.05117988     0.08000
H600        H  0.38282714  0.56400186  0.04341405     0.06800
N601        N  0.33063620  0.76235394  0.33180039    -0.27600
N602        N  0.34231416  0.74686453  0.34104300    -0.35400
C603        C  0.33666785  0.72769661  0.33259956     0.00800
C604        C  0.32080206  0.73133098  0.31735967     0.06800
C605        C  0.31724295  0.75337795  0.31731800    -0.06300
H606        H  0.34322062  0.71215247  0.33762965     0.07400
H607        H  0.30541261  0.76221406  0.30779420     0.08600
Cu608      Cu  0.36493596  0.75171675  0.36529078     0.44200
Cu609      Cu  0.33251223  0.79503503  0.33930444     0.42000
Cu610      Cu  0.37154772  0.80710380  0.38027312     0.43900
N611        N  0.38685684  0.76152505  0.38862954    -0.35000
N612        N  0.38924984  0.78207281  0.39389148    -0.29200
C613        C  0.40423300  0.78360891  0.40947151    -0.05300
C614        C  0.41161697  0.76302861  0.41436729     0.06900
C615        C  0.40029178  0.74935329  0.40082505     0.00700
H616        H  0.40914587  0.79857428  0.41694337     0.08300
H617        H  0.40144061  0.73193962  0.40016421     0.07400
N618        N  0.35278035  0.83044820  0.36518279    -0.36400
N619        N  0.33836029  0.82626462  0.35005305    -0.28600
C620        C  0.32917791  0.84501479  0.34356123    -0.03800
C621        C  0.33832166  0.86169638  0.35526493     0.04800
C622        C  0.35319655  0.85184815  0.36875301     0.02900
H623        H  0.31680044  0.84639882  0.33130526     0.08000
H624        H  0.36366610  0.85971386  0.38029838     0.06800
N625        N  0.32105651  0.05292837  0.32916454    -0.27600
N626        N  0.33637175  0.06753601  0.33250875    -0.35400
C627        C  0.33154199  0.08554464  0.32115385     0.00800
C628        C  0.31202246  0.08237503  0.31048170     0.06800
C629        C  0.30586344  0.06151995  0.31615808    -0.06300
H630        H  0.34160014  0.09992856  0.32069235     0.07400
H631        H  0.29141002  0.05303019  0.31100438     0.08600
Cu632      Cu  0.36223652  0.06323510  0.35380250     0.44200
Cu633      Cu  0.32205410  0.02110442  0.34036520     0.42000
Cu634      Cu  0.36359843  0.01075806  0.37907182     0.43900
N635        N  0.38287707  0.05551534  0.37932910    -0.35000
N636        N  0.38284515  0.03624354  0.38872629    -0.29200
C637        C  0.39721221  0.03613028  0.40494363    -0.05300
C638        C  0.40673525  0.05629707  0.40590439     0.06900
C639        C  0.39734686  0.06826553  0.38945546     0.00700
H640        H  0.40050519  0.02232268  0.41529989     0.08300
H641        H  0.40071293  0.08494099  0.38523756     0.07400
N642        N  0.34522712  0.98656590  0.36539439    -0.36400
N643        N  0.32985767  0.99003733  0.35097417    -0.28600
C644        C  0.32198233  0.97077822  0.34447640    -0.03800
C645        C  0.33299346  0.95455963  0.35548104     0.04800
C646        C  0.34755979  0.96518781  0.36853378     0.02900
H647        H  0.30942358  0.96873310  0.33251447     0.08000
H648        H  0.35932284  0.95785662  0.37929309     0.06800
N649        N  0.85834281  0.23513097  0.34372095    -0.27600
N650        N  0.84285528  0.24899612  0.34880486    -0.35400
C651        C  0.82489577  0.24429927  0.33737351     0.00800
C652        C  0.82911913  0.22644731  0.32465590     0.06800
C653        C  0.85044880  0.22102207  0.32932293    -0.06300
H654        H  0.81015749  0.25373960  0.33766604     0.07400
H655        H  0.85990151  0.20840241  0.32190038     0.08600
Cu656      Cu  0.84680243  0.27419001  0.37063685     0.44200
Cu657      Cu  0.89065152  0.23778922  0.35354068     0.42000
Cu658      Cu  0.90082237  0.27966578  0.39189322     0.43900
N659        N  0.85508361  0.29654061  0.39424958    -0.35000
N660        N  0.87485445  0.29793920  0.40235447    -0.29200
C661        C  0.87535589  0.31376033  0.41702679    -0.05300
C662        C  0.85496974  0.32296232  0.41819596     0.06900
C663        C  0.84246419  0.31160447  0.40355984     0.00700
H664        H  0.88968423  0.31855242  0.42589176     0.08300
H665        H  0.82558992  0.31434258  0.39971252     0.07400
N666        N  0.92531508  0.26290984  0.37662076    -0.36400
N667        N  0.92185399  0.24747367  0.36243591    -0.28600
C668        C  0.94112559  0.24097452  0.35455985    -0.03800
C669        C  0.95739038  0.25299851  0.36426450     0.04800
C670        C  0.94672060  0.26664955  0.37817807     0.02900
H671        H  0.94313486  0.22880671  0.34233311     0.08000
H672        H  0.95399002  0.27875149  0.38843234     0.06800
N673        N  0.14859528  0.22930739  0.33380640    -0.27600
N674        N  0.16511754  0.23369927  0.34666458    -0.35400
C675        C  0.18312781  0.22438502  0.33881745     0.00800
C676        C  0.17805805  0.21416580  0.31970295     0.06800
C677        C  0.15595852  0.21770877  0.31712177    -0.06300
H678        H  0.19888182  0.22531072  0.34642587     0.07400
H679        H  0.14594387  0.21250036  0.30384763     0.08600
Cu680      Cu  0.16380683  0.25417633  0.37311209     0.44200
Cu681      Cu  0.11629453  0.23806523  0.33958600     0.42000
Cu682      Cu  0.11000710  0.26787083  0.38808617     0.43900
N683        N  0.15711544  0.27655732  0.39709137    -0.35000
N684        N  0.13698286  0.28053180  0.40305113    -0.29200
C685        C  0.13689746  0.29678336  0.41717154    -0.05300
C686        C  0.15794021  0.30383681  0.42006982     0.06900
C687        C  0.17046037  0.29058949  0.40713694     0.00700
H688        H  0.12236633  0.30432597  0.42330836     0.08300
H689        H  0.18762201  0.29212681  0.40403066     0.07400
N690        N  0.08404753  0.25812458  0.36958542    -0.36400
N691        N  0.08591399  0.24706408  0.35160424    -0.28600
C692        C  0.06583510  0.24299924  0.34391196    -0.03800
C693        C  0.05084312  0.25218899  0.35772101     0.04800
C694        C  0.06299079  0.26160434  0.37373507     0.02900
H695        H  0.06239182  0.23392001  0.32952635     0.08000
H696        H  0.05693644  0.27011527  0.38761309     0.06800
N697        N  0.31733016  0.24486373  0.85247431    -0.27600
N698        N  0.32988638  0.25103979  0.83634199    -0.35400
C699        C  0.32359561  0.24052304  0.81856431     0.00800
C700        C  0.30595274  0.22747037  0.82349859     0.06800
C701        C  0.30239517  0.23082906  0.84516471    -0.06300
H702        H  0.33153274  0.24207167  0.80316573     0.07400
H703        H  0.29007686  0.22329795  0.85507792     0.08600
Cu704      Cu  0.35500847  0.27377266  0.83829637     0.44200
Cu705      Cu  0.32247082  0.25291491  0.88438394     0.42000
Cu706      Cu  0.37191591  0.28287518  0.89140239     0.43900
N707        N  0.37914259  0.29633409  0.84580193    -0.35000
N708        N  0.38566297  0.29881039  0.86581746    -0.29200
C709        C  0.40071946  0.31444020  0.86668576    -0.05300
C710        C  0.40385828  0.32255348  0.84622560     0.06900
C711        C  0.38993601  0.31064021  0.83326469     0.00700
H712        H  0.40839327  0.31995090  0.88129601     0.08300
H713        H  0.38750438  0.31257584  0.81616902     0.07400
N714        N  0.35380476  0.27091716  0.91640697    -0.36400
N715        N  0.33545406  0.26010541  0.91425985    -0.28600
C716        C  0.32775194  0.25524795  0.93393112    -0.03800
C717        C  0.34199597  0.26359900  0.94899189     0.04800
C718        C  0.35819442  0.27346710  0.93728443     0.02900
H719        H  0.31292449  0.24640589  0.93702746     0.08000
H720        H  0.37210448  0.28214800  0.94350345     0.06800
N721        N  0.32404240  0.23891302  0.13656191    -0.27600
N722        N  0.32840271  0.25144698  0.15313813    -0.35400
C723        C  0.31925339  0.24272359  0.17074005     0.00800
C724        C  0.30917568  0.22343978  0.16521004     0.06800
C725        C  0.31264101  0.22158838  0.14334445    -0.06300
H726        H  0.32014242  0.24979330  0.18655539     0.07400
H727        H  0.30738615  0.20856052  0.13304298     0.08600
Cu728      Cu  0.34851822  0.27867092  0.15192600     0.44200
Cu729      Cu  0.33197603  0.24667795  0.10515062     0.42000
Cu730      Cu  0.36127203  0.29661555  0.09879564     0.43900
N731        N  0.37167525  0.30253959  0.14546897    -0.35000
N732        N  0.37589129  0.30908701  0.12568085    -0.29200
C733        C  0.39225552  0.32338348  0.12596009    -0.05300
C734        C  0.39891927  0.32596665  0.14692983     0.06900
C735        C  0.38547144  0.31257942  0.15897955     0.00700
H736        H  0.39926248  0.33084410  0.11182557     0.08300
H737        H  0.38614199  0.30983863  0.17613012     0.07400
N738        N  0.34861126  0.27957224  0.07347543    -0.36400
N739        N  0.33817277  0.26098842  0.07562483    -0.28600
C740        C  0.33291944  0.25362156  0.05604069    -0.03800
C741        C  0.34045750  0.26835177  0.04103378     0.04800
C742        C  0.35038738  0.28453082  0.05255122     0.02900
H743        H  0.32467661  0.23848019  0.05294929     0.08000
H744        H  0.35882042  0.29857557  0.04618750     0.06800
N745        N  0.19132031  0.27054855  0.16019700    -0.27600
N746        N  0.18382192  0.25350307  0.14980364    -0.35400
C747        C  0.19131722  0.23536955  0.15954488     0.00800
C748        C  0.20380185  0.24115109  0.17724188     0.06800
C749        C  0.20311034  0.26365283  0.17709989    -0.06300
H750        H  0.18756378  0.21910638  0.15431297     0.07400
H751        H  0.21032333  0.27436157  0.18878001     0.08600
Cu752      Cu  0.16131768  0.25593717  0.12460059     0.44200
Cu753      Cu  0.18620400  0.30280586  0.15085087     0.42000
Cu754      Cu  0.15026568  0.31118298  0.10655656     0.43900
N755        N  0.13600595  0.26431630  0.10356950    -0.35000
N756        N  0.13238201  0.28442075  0.09699918    -0.29200
C757        C  0.11434388  0.28486738  0.08486468    -0.05300
C758        C  0.10590227  0.26414770  0.08380122     0.06900
C759        C  0.12012689  0.25147317  0.09581093     0.00700
H760        H  0.10744019  0.29941742  0.07784728     0.08300
H761        H  0.11861857  0.23438917  0.09925939     0.07400
N762        N  0.16748925  0.33625678  0.12063585    -0.36400
N763        N  0.18070844  0.33337768  0.13714176    -0.28600
C764        C  0.18865569  0.35280395  0.14308985    -0.03800
C765        C  0.17990535  0.36859342  0.12970078     0.04800
C766        C  0.16655891  0.35748572  0.11571200     0.02900
H767        H  0.19948114  0.35533471  0.15651721     0.08000
H768        H  0.15644663  0.36442893  0.10320166     0.06800
N769        N  0.19921492  0.55931798  0.15757405    -0.27600
N770        N  0.18349742  0.57355670  0.15426968    -0.35400
C771        C  0.18782044  0.59159472  0.16542467     0.00800
C772        C  0.20735486  0.58886685  0.17605321     0.06800
C773        C  0.21418723  0.56824928  0.17052499    -0.06300
H774        H  0.17727323  0.60555921  0.16603035     0.07400
H775        H  0.22871264  0.56005503  0.17603379     0.08600
Cu776      Cu  0.15729579  0.56914160  0.13384489     0.44200
Cu777      Cu  0.19879696  0.52750499  0.14636429     0.42000
Cu778      Cu  0.16198521  0.52096709  0.10300694     0.43900
N779        N  0.13732963  0.56247271  0.10791161    -0.35000
N780        N  0.14050022  0.54547470  0.09558656    -0.29200
C781        C  0.12529519  0.54509674  0.08018019    -0.05300
C782        C  0.11147083  0.56241535  0.08318397     0.06900
C783        C  0.11966965  0.57322271  0.10086748     0.00700
H784        H  0.12357757  0.53231219  0.06851669     0.08300
H785        H  0.11280744  0.58725353  0.10855092     0.07400
N786        N  0.17779223  0.49519463  0.11732356    -0.36400
N787        N  0.19130304  0.49718086  0.13367072    -0.28600
C788        C  0.19684048  0.47719731  0.14071446    -0.03800
C789        C  0.18614809  0.46207562  0.12814575     0.04800
C790        C  0.17428495  0.47411262  0.11352693     0.02900
H791        H  0.20707418  0.47391719  0.15447191     0.08000
H792        H  0.16313123  0.46797933  0.10158146     0.06800
N793        N  0.35771591  0.07947590  0.17450906    -0.27600
N794        N  0.34552266  0.08004023  0.15703320    -0.35400
C795        C  0.32796044  0.09244978  0.16089227     0.00800
C796        C  0.32876363  0.09961025  0.18203826     0.06800
C797        C  0.34772136  0.09050156  0.19009847    -0.06300
H798        H  0.31588118  0.09638439  0.14890741     0.07400
H799        H  0.35431075  0.09237497  0.20608057     0.08600
Cu800      Cu  0.35277667  0.06249000  0.12931392     0.44200
Cu801      Cu  0.38976929  0.06879138  0.17573037     0.42000
Cu802      Cu  0.40739275  0.04133443  0.12968463     0.43900
N803        N  0.36383754  0.03902848  0.10784741    -0.35000
N804        N  0.38359453  0.03081438  0.10895554    -0.29200
C805        C  0.38552786  0.01480065  0.09464743    -0.05300
C806        C  0.36617707  0.01287168  0.08360586     0.06900
C807        C  0.35274454  0.02854383  0.09239906     0.00700
H808        H  0.39993251  0.00508603  0.09262578     0.08300
H809        H  0.33606175  0.03179680  0.08815920     0.07400
N810        N  0.42885093  0.05443548  0.15141969    -0.36400
N811        N  0.42258340  0.06435536  0.16904754    -0.28600
C812        C  0.44028012  0.07199124  0.17930107    -0.03800
C813        C  0.45840719  0.06657215  0.16734740     0.04800
C814        C  0.45052397  0.05547243  0.14984399     0.02900
H815        H  0.43994089  0.08133581  0.19390137     0.08000
H816        H  0.45985885  0.04898745  0.13667578     0.06800
N817        N  0.65010625  0.09628199  0.17970735    -0.27600
N818        N  0.66491132  0.08087479  0.17859615    -0.35400
C819        C  0.68231313  0.08669133  0.19024729     0.00800
C820        C  0.67890023  0.10724837  0.19848443     0.06800
C821        C  0.65834733  0.11282965  0.19098220    -0.06300
H822        H  0.69613906  0.07627920  0.19289100     0.07400
H823        H  0.64960944  0.12770311  0.19395165     0.08600
Cu824      Cu  0.66189799  0.05331458  0.15999229     0.44200
Cu825      Cu  0.61761403  0.09223589  0.17086578     0.42000
Cu826      Cu  0.60709445  0.03898436  0.15059921     0.43900
N827        N  0.65325950  0.02878038  0.13910754    -0.35000
N828        N  0.63282621  0.02287066  0.13675124    -0.29200
C829        C  0.63145303  0.00824095  0.12103504    -0.05300
C830        C  0.65191918  0.00507944  0.11262600     0.06900
C831        C  0.66545838  0.01831934  0.12453210     0.00700
H832        H  0.61634812  0.00202602  0.11468032     0.08300
H833        H  0.68245900  0.02142156  0.12167988     0.07400
N834        N  0.58287636  0.05959263  0.16088667    -0.36400
N835        N  0.58631390  0.07948916  0.16781749    -0.28600
C836        C  0.56705194  0.08840202  0.17303686    -0.03800
C837        C  0.55088208  0.07327451  0.16915939     0.04800
C838        C  0.56154578  0.05531356  0.16142977     0.02900
H839        H  0.56498509  0.10451923  0.17937214     0.08000
H840        H  0.55426627  0.04017659  0.15645206     0.06800
N841        N  0.35782137  0.07296785  0.79896649    -0.27600
N842        N  0.34496059  0.07102320  0.81581799    -0.35400
C843        C  0.32799091  0.08442371  0.81333216     0.00800
C844        C  0.32995175  0.09494241  0.79374632     0.06800
C845        C  0.34909919  0.08730632  0.78509922    -0.06300
H846        H  0.31483111  0.08588043  0.82467862     0.07400
H847        H  0.35604988  0.09162385  0.76972065     0.08600
Cu848      Cu  0.34903528  0.04827788  0.84010516     0.44200
Cu849      Cu  0.38707306  0.05691202  0.79595686     0.42000
Cu850      Cu  0.39739034  0.01684728  0.83751219     0.43900
N851        N  0.35431998  0.02133686  0.85944173    -0.35000
N852        N  0.37209927  0.00948659  0.85818993    -0.29200
C853        C  0.37116137  0.99354869  0.87297337    -0.05300
C854        C  0.35181278  0.99540185  0.88395168     0.06900
C855        C  0.34155461  0.01325423  0.87506271     0.00700
H856        H  0.38406035  0.98204537  0.87617172     0.08300
H857        H  0.32636915  0.02032572  0.88012041     0.07400
N858        N  0.42077891  0.02838308  0.81648269    -0.36400
N859        N  0.41706316  0.04280085  0.80111315    -0.28600
C860        C  0.43595547  0.04800135  0.79160352    -0.03800
C861        C  0.45226914  0.03624039  0.80150274     0.04800
C862        C  0.44208713  0.02401059  0.81715517     0.02900
H863        H  0.43779018  0.06010075  0.77909058     0.08000
H864        H  0.44976271  0.01340972  0.82882412     0.06800
N865        N  0.63685803  0.08061296  0.81362798    -0.27600
N866        N  0.64495077  0.08445282  0.83288918    -0.35400
C867        C  0.66132318  0.09873837  0.83102414     0.00800
C868        C  0.66415542  0.10366918  0.80946188     0.06800
C869        C  0.64846771  0.09159404  0.79899625    -0.06300
H870        H  0.67057916  0.10484339  0.84444844     0.07400
H871        H  0.64556401  0.09088509  0.78189488     0.08600
Cu872      Cu  0.63626452  0.06720344  0.86017805     0.44200
Cu873      Cu  0.60902527  0.06273860  0.80751391     0.42000
Cu874      Cu  0.59394400  0.02818817  0.84977668     0.43900
N875        N  0.62959878  0.04104207  0.88011760    -0.35000
N876        N  0.61423937  0.02676858  0.87582527    -0.29200
C877        C  0.61469909  0.01088675  0.89055716    -0.05300
C878        C  0.63125491  0.01522355  0.90468771     0.06900
C879        C  0.64044139  0.03445555  0.89777413     0.00700
H880        H  0.60396196  0.99699407  0.89075091     0.08300
H881        H  0.65414555  0.04278089  0.90476171     0.07400
N882        N  0.57421769  0.03357022  0.82380354    -0.36400
N883        N  0.57933939  0.04689565  0.80796228    -0.28600
C884        C  0.56173686  0.04986323  0.79543124    -0.03800
C885        C  0.54491910  0.03760675  0.80391835     0.04800
C886        C  0.55346607  0.02751060  0.82182391     0.02900
H887        H  0.56078028  0.06126191  0.78219803     0.08000
H888        H  0.54470033  0.01798578  0.83361189     0.06800
N889        N  0.36012491  0.75643914  0.18362097    -0.27600
N890        N  0.34361315  0.76076298  0.17066027    -0.35400
C891        C  0.32579028  0.75076213  0.17834301     0.00800
C892        C  0.33121833  0.73976566  0.19710293     0.06800
C893        C  0.35306091  0.74409710  0.20005391    -0.06300
H894        H  0.31034287  0.75033942  0.17011573     0.07400
H895        H  0.36350321  0.73726631  0.21235310     0.08600
Cu896      Cu  0.34604118  0.77821948  0.14182451     0.44200
Cu897      Cu  0.39258526  0.76231101  0.17636200     0.42000
Cu898      Cu  0.40028959  0.78140631  0.12265483     0.43900
N899        N  0.35446316  0.79503331  0.11378619    -0.35000
N900        N  0.37463546  0.79539797  0.10671260    -0.29200
C901        C  0.37591091  0.80821225  0.08929855    -0.05300
C902        C  0.35559445  0.81648663  0.08507744     0.06900
C903        C  0.34227946  0.80787946  0.10094267     0.00700
H904        H  0.39083679  0.81222582  0.08102637     0.08300
H905        H  0.32531781  0.81140382  0.10345706     0.07400
N906        N  0.42531936  0.77078085  0.14181103    -0.36400
N907        N  0.42295744  0.76410374  0.16186633    -0.28600
C908        C  0.44265191  0.75903453  0.16989961    -0.03800
C909        C  0.45790766  0.76284724  0.15401635     0.04800
C910        C  0.44636202  0.77029191  0.13651817     0.02900
H911        H  0.44567064  0.75335790  0.18609693     0.08000
H912        H  0.45284226  0.77542042  0.12115605     0.06800
N913        N  0.64675100  0.74865193  0.17939242    -0.27600
N914        N  0.65986646  0.76555538  0.17980577    -0.35400
C915        C  0.67657511  0.76090984  0.19302975     0.00800
C916        C  0.67446849  0.73962893  0.20044713     0.06800
C917        C  0.65534556  0.73255907  0.19113956    -0.06300
H918        H  0.68943782  0.77220850  0.19653081     0.07400
H919        H  0.64825263  0.71655994  0.19230314     0.08600
Cu920      Cu  0.65690073  0.79186416  0.15850349     0.44200
Cu921      Cu  0.61653534  0.74793041  0.16520629     0.42000
Cu922      Cu  0.60884514  0.78598557  0.12474036     0.43900
N923        N  0.65120280  0.81023620  0.13056887    -0.35000
N924        N  0.63389896  0.80720968  0.11834422    -0.29200
C925        C  0.63455904  0.82084452  0.10153151    -0.05300
C926        C  0.65314734  0.83306830  0.10296041     0.06900
C927        C  0.66343494  0.82605538  0.12159277     0.00700
H928        H  0.62209132  0.82208854  0.08930659     0.08300
H929        H  0.67845290  0.83212058  0.12819978     0.07400
N930        N  0.58350357  0.76774983  0.13664612    -0.36400
N931        N  0.58616340  0.75391722  0.15264230    -0.28600
C932        C  0.56660049  0.74765720  0.15994118    -0.03800
C933        C  0.55086555  0.75803753  0.14774579     0.04800
C934        C  0.56223108  0.77043476  0.13297019     0.02900
H935        H  0.56404450  0.73756748  0.17395139     0.08000
H936        H  0.55551348  0.78186882  0.12149251     0.06800
N937        N  0.81601858  0.27924628  0.16550000    -0.27600
N938        N  0.81716498  0.26391349  0.15085775    -0.35400
C939        C  0.80706844  0.24612343  0.15843463     0.00800
C940        C  0.80026910  0.24988790  0.17936542     0.06800
C941        C  0.80635783  0.27117162  0.18311471    -0.06300
H942        H  0.80557048  0.23128766  0.14947816     0.07400
H943        H  0.80467972  0.28007036  0.19789682     0.08600
Cu944      Cu  0.83726754  0.26556717  0.12390673     0.44200
Cu945      Cu  0.82610345  0.31107595  0.16110032     0.42000
Cu946      Cu  0.86109961  0.31842736  0.11723497     0.43900
N947        N  0.86383313  0.27157981  0.10389301    -0.35000
N948        N  0.87234569  0.29115097  0.10199002    -0.29200
C949        C  0.88959301  0.29037432  0.08900013    -0.05300
C950        C  0.89232432  0.26933714  0.08231304     0.06900
C951        C  0.87572380  0.25769683  0.09206562     0.00700
H952        H  0.89957913  0.30421013  0.08477737     0.08300
H953        H  0.87260241  0.24053747  0.09073333     0.07400
N954        N  0.84767073  0.34417890  0.13332412    -0.36400
N955        N  0.83447627  0.34169009  0.14981490    -0.28600
C956        C  0.82733590  0.36132148  0.15595192    -0.03800
C957        C  0.83665826  0.37674588  0.14261341     0.04800
C958        C  0.84943575  0.36533087  0.12851095     0.02900
H959        H  0.81586528  0.36410591  0.16874311     0.08000
H960        H  0.85888336  0.37188004  0.11535666     0.06800
N961        N  0.81213301  0.56641994  0.16022406    -0.27600
N962        N  0.82707116  0.58152482  0.15734553    -0.35400
C963        C  0.82227465  0.59879262  0.16935616     0.00800
C964        C  0.80309675  0.59481792  0.18009413     0.06800
C965        C  0.79703164  0.57413877  0.17374317    -0.06300
H966        H  0.83248503  0.61300876  0.17064323     0.07400
H967        H  0.78304236  0.56501116  0.17920552     0.08600
Cu968      Cu  0.85352461  0.57902496  0.13740219     0.44200
Cu969      Cu  0.81485864  0.53492314  0.14827201     0.42000
Cu970      Cu  0.86237580  0.52713848  0.11505918     0.43900
N971        N  0.87772173  0.57333191  0.11544457    -0.35000
N972        N  0.88102483  0.55391374  0.10734773    -0.29200
C973        C  0.89775030  0.55490216  0.09366808    -0.05300
C974        C  0.90519117  0.57597935  0.09302752     0.06900
C975        C  0.89217755  0.58733474  0.10700977     0.00700
H976        H  0.90402669  0.54128037  0.08477295     0.08300
H977        H  0.89319017  0.60436240  0.11085344     0.07400
N978        N  0.84244701  0.50211976  0.12512554    -0.36400
N979        N  0.82509213  0.50462720  0.13729828    -0.28600
C980        C  0.81728705  0.48487211  0.14254741    -0.03800
C981        C  0.83035145  0.46936124  0.13313059     0.04800
C982        C  0.84608852  0.48089451  0.12224740     0.02900
H983        H  0.80389762  0.48198361  0.15337791     0.08000
H984        H  0.85992877  0.47430935  0.11388146     0.06800
N985        N  0.82689493  0.09179908  0.35714949    -0.27600
N986        N  0.83596640  0.07896502  0.34280275    -0.35400
C987        C  0.83051936  0.08580485  0.32299358     0.00800
C988        C  0.81743768  0.10378630  0.32492669     0.06800
C989        C  0.81543544  0.10719068  0.34673290    -0.06300
H990        H  0.83556046  0.07811832  0.30826336     0.07400
H991        H  0.80603454  0.11971037  0.35445544     0.08600
Cu992      Cu  0.85561970  0.05277395  0.35005866     0.44200
Cu993      Cu  0.82994248  0.08760165  0.39028336     0.42000
Cu994      Cu  0.86459467  0.04272154  0.40570706     0.43900
N995        N  0.87681880  0.02931049  0.36118550    -0.35000
N996        N  0.88028243  0.02579954  0.38184032    -0.29200
C997        C  0.89540623  0.01031245  0.38415255    -0.05300
C998        C  0.90172685  0.00373226  0.36395205     0.06900
C999        C  0.88961208  0.01609548  0.34973426     0.00700
H1000       H  0.90149863  0.00439703  0.39941775     0.08300
H1001       H  0.89016147  0.01563527  0.33239885     0.07400
N1002       N  0.84814472  0.06182842  0.42735439    -0.36400
N1003       N  0.83556757  0.07839050  0.42209639    -0.28600
C1004       C  0.82742390  0.08700823  0.44021782    -0.03800
C1005       C  0.83528471  0.07515320  0.45754299     0.04800
C1006       C  0.84834079  0.05942290  0.44876042     0.02900
H1007       H  0.81642342  0.10061746  0.44072744     0.08000
H1008       H  0.85727194  0.04696298  0.45735974     0.06800
N1009       N  0.81276601  0.08149037  0.64839497    -0.27600
N1010       N  0.82676642  0.07533015  0.66336628    -0.35400
C1011       C  0.82199405  0.08574829  0.68170918     0.00800
C1012       C  0.80384319  0.09876534  0.67839466     0.06800
C1013       C  0.79835414  0.09521909  0.65708446    -0.06300
H1014       H  0.83162095  0.08455791  0.69620417     0.07400
H1015       H  0.78531512  0.10285051  0.64816088     0.08600
Cu1016     Cu  0.85235522  0.05344292  0.65821309     0.44200
Cu1017     Cu  0.81632366  0.07547795  0.61567371     0.42000
Cu1018     Cu  0.86648416  0.04920292  0.60285779     0.43900
N1019       N  0.87691211  0.03267976  0.64725541    -0.35000
N1020       N  0.88230918  0.03203765  0.62675970    -0.29200
C1021       C  0.89807647  0.01735025  0.62398250    -0.05300
C1022       C  0.90284438  0.00787178  0.64359040     0.06900
C1023       C  0.88913657  0.01805484  0.65808374     0.00700
H1024       H  0.90510766  0.01334766  0.60862369     0.08300
H1025       H  0.88777841  0.01467397  0.67508600     0.07400
N1026       N  0.84695276  0.06396166  0.58009824    -0.36400
N1027       N  0.82811803  0.07315428  0.58440636    -0.28600
C1028       C  0.81918085  0.08025945  0.56586113    -0.03800
C1029       C  0.83322384  0.07530249  0.54927748     0.04800
C1030       C  0.85053318  0.06491389  0.55887416     0.02900
H1031       H  0.80353800  0.08805706  0.56450523     0.08000
H1032       H  0.86445825  0.05795597  0.55091116     0.06800
N1033       N  0.17142269  0.72848488  0.35173592    -0.27600
N1034       N  0.16322003  0.74177909  0.33704719    -0.35400
C1035       C  0.17362852  0.73892740  0.31840423     0.00800
C1036       C  0.18913335  0.72316985  0.32141434     0.06800
C1037       C  0.18735132  0.71678354  0.34265472    -0.06300
H1038       H  0.16995754  0.74753520  0.30361015     0.07400
H1039       H  0.19673308  0.70437357  0.35082222     0.08600
Cu1040     Cu  0.13822714  0.76340765  0.34185113     0.44200
Cu1041     Cu  0.16047837  0.72670953  0.38339207     0.42000
Cu1042     Cu  0.11783153  0.76536148  0.39477945     0.43900
N1043       N  0.11421399  0.78475688  0.35071631    -0.35000
N1044       N  0.10668536  0.78538716  0.37051499    -0.29200
C1045       C  0.09199552  0.80132343  0.37193773    -0.05300
C1046       C  0.09023956  0.81120183  0.35205244     0.06900
C1047       C  0.10453232  0.80033223  0.33890982     0.00700
H1048       H  0.08358984  0.80574186  0.38649174     0.08300
H1049       H  0.10805993  0.80384204  0.32224308     0.07400
N1050       N  0.13099354  0.74458126  0.41738339    -0.36400
N1051       N  0.14629492  0.73013587  0.41355824    -0.28600
C1052       C  0.15069283  0.71930354  0.43195092    -0.03800
C1053       C  0.13749979  0.72746952  0.44799405     0.04800
C1054       C  0.12538594  0.74349198  0.43812942     0.02900
H1055       H  0.16257418  0.70653794  0.43352306     0.08000
H1056       H  0.11334091  0.75375568  0.44557077     0.06800
N1057       N  0.16164300  0.72231747  0.63470459    -0.27600
N1058       N  0.15950511  0.73913115  0.64755596    -0.35400
C1059       C  0.17180149  0.73592615  0.66513431     0.00800
C1060       C  0.18191372  0.71600302  0.66343631     0.06800
C1061       C  0.17508645  0.70785952  0.64393684    -0.06300
H1062       H  0.17307174  0.74718355  0.67830217     0.07400
H1063       H  0.17949277  0.69247917  0.63699496     0.08600
Cu1064     Cu  0.13898176  0.76510820  0.64161203     0.44200
Cu1065     Cu  0.14712947  0.71977302  0.60476365     0.42000
Cu1066     Cu  0.11135734  0.76337011  0.59077518     0.43900
N1067       N  0.11578762  0.78759364  0.63225167    -0.35000
N1068       N  0.10576805  0.78682653  0.61349901    -0.29200
C1069       C  0.09156163  0.80323498  0.61209911    -0.05300
C1070       C  0.09262331  0.81483632  0.63089594     0.06900
C1071       C  0.10807747  0.80450490  0.64340404     0.00700
H1072       H  0.08099576  0.80631016  0.59850425     0.08300
H1073       H  0.11317693  0.80882343  0.65942480     0.07400
N1074       N  0.12056410  0.73971821  0.56945024    -0.36400
N1075       N  0.13370857  0.72354718  0.57441709    -0.28600
C1076       C  0.13865085  0.71273276  0.55639582    -0.03800
C1077       C  0.12815090  0.72273037  0.53931977     0.04800
C1078       C  0.11679154  0.73967533  0.54824313     0.02900
H1079       H  0.15019092  0.69957484  0.55556821     0.08000
H1080       H  0.10773247  0.75208228  0.53968468     0.06800
N1081       N  0.82939828  0.27616236  0.82152340    -0.27600
N1082       N  0.83496648  0.26105905  0.83565681    -0.35400
C1083       C  0.82569223  0.24219894  0.83013108     0.00800
C1084       C  0.81390427  0.24535870  0.81143824     0.06800
C1085       C  0.81692835  0.26706199  0.80632551    -0.06300
H1086       H  0.82672321  0.22745122  0.83961099     0.07400
H1087       H  0.80963988  0.27590282  0.79306818     0.08600
Cu1088     Cu  0.85453979  0.26632590  0.86217218     0.44200
Cu1089     Cu  0.83572082  0.30916112  0.82521767     0.42000
Cu1090     Cu  0.86820725  0.32155338  0.87182104     0.43900
N1091       N  0.87626462  0.27562321  0.88576059    -0.35000
N1092       N  0.88108122  0.29610236  0.88942821    -0.29200
C1093       C  0.89652886  0.29704709  0.90462633    -0.05300
C1094       C  0.90192740  0.27610865  0.91063349     0.06900
C1095       C  0.88869660  0.26291843  0.89839247     0.00700
H1096       H  0.90395055  0.31183956  0.91021124     0.08300
H1097       H  0.88879027  0.24544903  0.89800414     0.07400
N1098       N  0.85410034  0.34488299  0.85234970    -0.36400
N1099       N  0.84211733  0.34073518  0.83523665    -0.28600
C1100       C  0.83495001  0.35967002  0.82688001    -0.03800
C1101       C  0.84291116  0.37633748  0.83943600     0.04800
C1102       C  0.85495835  0.36635927  0.85533011     0.02900
H1103       H  0.82449479  0.36117016  0.81299664     0.08000
H1104       H  0.86351160  0.37416403  0.86834554     0.06800
N1105       N  0.82039570  0.56874749  0.83635898    -0.27600
N1106       N  0.83593234  0.58343474  0.83774970    -0.35400
C1107       C  0.82943494  0.60157107  0.82753058     0.00800
C1108       C  0.80852341  0.59857316  0.81978252     0.06800
C1109       C  0.80329134  0.57758742  0.82611846    -0.06300
H1110       H  0.83957408  0.61574008  0.82536400     0.07400
H1111       H  0.78838295  0.56896392  0.82286387     0.08600
Cu1112     Cu  0.86508369  0.57880844  0.85416684     0.44200
Cu1113     Cu  0.82468085  0.53597238  0.84366167     0.42000
Cu1114     Cu  0.87785285  0.52340936  0.86400808     0.43900
N1115       N  0.89050703  0.56920519  0.87417803    -0.35000
N1116       N  0.89517237  0.54856652  0.87747317    -0.29200
C1117       C  0.91055915  0.54693191  0.89268558    -0.05300
C1118       C  0.91583826  0.56753386  0.89944538     0.06900
C1119       C  0.90284411  0.58133304  0.88736302     0.00700
H1120       H  0.91642591  0.53183349  0.89934565     0.08300
H1121       H  0.90147616  0.59865925  0.88901940     0.07400
N1122       N  0.85668331  0.50021654  0.85256018    -0.36400
N1123       N  0.83684377  0.50445358  0.84562835    -0.28600
C1124       C  0.82737673  0.48571736  0.83969611    -0.03800
C1125       C  0.84208875  0.46905306  0.84305996     0.04800
C1126       C  0.86040263  0.47884505  0.85125105     0.02900
H1127       H  0.81112647  0.48433404  0.83332347     0.08000
H1128       H  0.87533068  0.47095268  0.85610363     0.06800
N1129       N  0.81627110  0.74594495  0.36524197    -0.27600
N1130       N  0.83518154  0.74482665  0.35538722    -0.35400
C1131       C  0.83363142  0.73096096  0.33892902     0.00800
C1132       C  0.81250381  0.72343175  0.33784952     0.06800
C1133       C  0.80203504  0.73333596  0.35484803    -0.06300
H1134       H  0.84682703  0.72726330  0.32817150     0.07400
H1135       H  0.78506551  0.73195088  0.35903613     0.08600
Cu1136     Cu  0.86089328  0.76523768  0.36172621     0.44200
Cu1137     Cu  0.81046522  0.76409395  0.39263465     0.42000
Cu1138     Cu  0.85321715  0.80106591  0.40611015     0.43900
N1139       N  0.88031457  0.79189441  0.36719193    -0.35000
N1140       N  0.87729301  0.80521043  0.38342069    -0.29200
C1141       C  0.89153913  0.82160251  0.38193244    -0.05300
C1142       C  0.90398269  0.81843294  0.36384905     0.06900
C1143       C  0.89653597  0.79947615  0.35485463     0.00700
H1144       H  0.89257965  0.83496668  0.39303001     0.08300
H1145       H  0.90219876  0.79197016  0.34027204     0.07400
N1146       N  0.82772521  0.79391666  0.42644389    -0.36400
N1147       N  0.81168422  0.78063665  0.42156812    -0.28600
C1148       C  0.79897180  0.77800714  0.43896347    -0.03800
C1149       C  0.80761140  0.79013341  0.45557930     0.04800
C1150       C  0.82575092  0.80000818  0.44696748     0.02900
H1151       H  0.78533147  0.76706994  0.43984076     0.08000
H1152       H  0.83749812  0.80981343  0.45545597     0.06800
N1153       N  0.81210134  0.75247935  0.64080340    -0.27600
N1154       N  0.83091622  0.75050643  0.65080775    -0.35400
C1155       C  0.82828094  0.73778869  0.66820445     0.00800
C1156       C  0.80653853  0.73224520  0.66994528     0.06800
C1157       C  0.79686581  0.74195087  0.65218122    -0.06300
H1158       H  0.84120443  0.73371351  0.67925258     0.07400
H1159       H  0.77978934  0.74214311  0.64817752     0.08600
Cu1160     Cu  0.85789376  0.76946427  0.64397246     0.44200
Cu1161     Cu  0.80771644  0.76877593  0.61182367     0.42000
Cu1162     Cu  0.85188464  0.80315287  0.59715063     0.43900
N1163       N  0.87840342  0.79531780  0.63714060    -0.35000
N1164       N  0.87593520  0.80765088  0.61987341    -0.29200
C1165       C  0.89118345  0.82316155  0.61983640    -0.05300
C1166       C  0.90377515  0.82061043  0.63800857     0.06900
C1167       C  0.89528336  0.80281621  0.64869702     0.00700
H1168       H  0.89305893  0.83536758  0.60739620     0.08300
H1169       H  0.90102516  0.79576803  0.66360268     0.07400
N1170       N  0.82663417  0.79593865  0.57650836    -0.36400
N1171       N  0.81013741  0.78334303  0.58176960    -0.28600
C1172       C  0.79769523  0.78021664  0.56425487    -0.03800
C1173       C  0.80692273  0.79140845  0.54719281     0.04800
C1174       C  0.82517100  0.80119118  0.55562044     0.02900
H1175       H  0.78374671  0.76963645  0.56369864     0.08000
H1176       H  0.83727823  0.81037464  0.54684694     0.06800
N1177       N  0.34981410  0.73943556  0.82099427    -0.27600
N1178       N  0.33338829  0.74282566  0.83413428    -0.35400
C1179       C  0.31561149  0.73317725  0.82613832     0.00800
C1180       C  0.32092762  0.72361178  0.80678222     0.06800
C1181       C  0.34272508  0.72824206  0.80395732    -0.06300
H1182       H  0.30007834  0.73266822  0.83416743     0.07400
H1183       H  0.35298163  0.72306875  0.79090653     0.08600
Cu1184     Cu  0.33570588  0.76074606  0.86211613     0.44200
Cu1185     Cu  0.38190945  0.74589573  0.82860132     0.42000
Cu1186     Cu  0.38984959  0.76485250  0.88238320     0.43900
N1187       N  0.34431998  0.78139362  0.88685658    -0.35000
N1188       N  0.36427220  0.78225228  0.89456313    -0.29200
C1189       C  0.36573428  0.79854497  0.90859557    -0.05300
C1190       C  0.34578994  0.80856692  0.90973580     0.06900
C1191       C  0.33249613  0.79728599  0.89579953     0.00700
H1192       H  0.38060699  0.80363301  0.91634255     0.08300
H1193       H  0.31593753  0.80112358  0.89155588     0.07400
N1194       N  0.41474214  0.75419455  0.86319468    -0.36400
N1195       N  0.41212810  0.74786884  0.84314598    -0.28600
C1196       C  0.43171180  0.74363965  0.83465000    -0.03800
C1197       C  0.44729879  0.74768431  0.85014082     0.04800
C1198       C  0.43594893  0.75435271  0.86797591     0.02900
H1199       H  0.43441441  0.73844179  0.81834010     0.08000
H1200       H  0.44268321  0.75969556  0.88310565     0.06800
N1201       N  0.63951912  0.74095689  0.84119255    -0.27600
N1202       N  0.65308065  0.75753482  0.84175891    -0.35400
C1203       C  0.67114205  0.75217794  0.83100189     0.00800
C1204       C  0.66917711  0.73103699  0.82376871     0.06800
C1205       C  0.64893476  0.72444425  0.83083546    -0.06300
H1206       H  0.68458587  0.76313073  0.82825148     0.07400
H1207       H  0.64120096  0.70896871  0.82810918     0.08600
Cu1208     Cu  0.64718837  0.78639849  0.85806285     0.44200
Cu1209     Cu  0.60730094  0.74250732  0.85019413     0.42000
Cu1210     Cu  0.59252479  0.79086441  0.87686260     0.43900
N1211       N  0.63722175  0.81002531  0.87975181    -0.35000
N1212       N  0.61724552  0.81056674  0.88730505    -0.29200
C1213       C  0.61584836  0.82575787  0.90248889    -0.05300
C1214       C  0.63580742  0.83570576  0.90456176     0.06900
C1215       C  0.64902810  0.82532835  0.88977906     0.00700
H1216       H  0.60134689  0.82907374  0.91165886     0.08300
H1217       H  0.66603198  0.82834733  0.88684006     0.07400
N1218       N  0.57009840  0.77035510  0.86335824    -0.36400
N1219       N  0.57538654  0.75209582  0.85379842    -0.28600
C1220       C  0.55722378  0.74242711  0.84664761    -0.03800
C1221       C  0.53981704  0.75541534  0.85194843     0.04800
C1222       C  0.54851229  0.77290935  0.86256048     0.02900
H1223       H  0.55672090  0.72711198  0.83834701     0.08000
H1224       H  0.53975935  0.78634583  0.86950308     0.06800
C1225       C  0.22602808  0.65079495  0.73460220     0.02000
C1226       C  0.23599807  0.66988439  0.72576286     0.02000
C1227       C  0.25545722  0.67823980  0.73527953     0.02000
C1228       C  0.26339292  0.66916016  0.75505546     0.02000
C1229       C  0.25350342  0.65010432  0.76381932     0.02000
C1230       C  0.23420205  0.64155266  0.75416746     0.02000
C1231       C  0.73951240  0.66823678  0.77513901     0.02000
C1232       C  0.73196201  0.68907099  0.76809991     0.02000
C1233       C  0.74268066  0.70061151  0.75100327     0.02000
C1234       C  0.76048339  0.68995285  0.74036836     0.02000
C1235       C  0.76814874  0.66909625  0.74752234     0.02000
C1236       C  0.75891669  0.65949243  0.76629217     0.02000
C1237       C  0.73381853  0.68020510  0.24508422     0.02000
C1238       C  0.74188413  0.66097270  0.23515707     0.02000
C1239       C  0.76142922  0.65106162  0.24307397     0.02000
C1240       C  0.77110592  0.65860391  0.26262714     0.02000
C1241       C  0.76256928  0.67753641  0.27289179     0.02000
C1242       C  0.74342030  0.68781858  0.26460956     0.02000
C1243       C  0.73913156  0.14783282  0.74524427     0.02000
C1244       C  0.72878196  0.15596004  0.76414243     0.02000
C1245       C  0.73728788  0.17474761  0.77481252     0.02000
C1246       C  0.75715467  0.18426220  0.76726392     0.02000
C1247       C  0.76719712  0.17632017  0.74803316     0.02000
C1248       C  0.75906632  0.15721352  0.73790352     0.02000
N1249       N  0.19232091  0.26459413  0.84255921    -0.27600
N1250       N  0.17779845  0.24940833  0.84685296    -0.35400
C1251       C  0.18200447  0.23199879  0.83472044     0.00800
C1252       C  0.20022488  0.23622052  0.82240014     0.06800
C1253       C  0.20646173  0.25695891  0.82808785    -0.06300
H1254       H  0.17195517  0.21763537  0.83425808     0.07400
H1255       H  0.21971240  0.26630134  0.82138167     0.08600
Cu1256     Cu  0.15213967  0.25296962  0.86812726     0.44200
Cu1257     Cu  0.19013915  0.29648891  0.85270329     0.42000
Cu1258     Cu  0.14120683  0.30827438  0.88124304     0.43900
N1259       N  0.12782832  0.26199294  0.88929451    -0.35000
N1260       N  0.12361226  0.28250534  0.89346705    -0.29200
C1261       C  0.10746460  0.28354777  0.90781070    -0.05300
C1262       C  0.10126570  0.26269341  0.91316729     0.06900
C1263       C  0.11450018  0.24935081  0.90109754     0.00700
H1264       H  0.10108465  0.29840836  0.91432379     0.08300
H1265       H  0.11475928  0.23188362  0.90124387     0.07400
N1266       N  0.16241509  0.33191565  0.87053384    -0.36400
N1267       N  0.18065177  0.32779696  0.86023613    -0.28600
C1268       C  0.19056865  0.34668548  0.85546520    -0.03800
C1269       C  0.17792021  0.36332404  0.86333701     0.04800
C1270       C  0.16025702  0.35340994  0.87274539     0.02900
H1271       H  0.20567527  0.34818692  0.84681576     0.08000
H1272       H  0.14673096  0.36127019  0.88051621     0.06800
N1273       N  0.17985977  0.55300736  0.83016473    -0.27600
N1274       N  0.16485683  0.56764671  0.83444981    -0.35400
C1275       C  0.16893276  0.58565612  0.82288538     0.00800
C1276       C  0.18759171  0.58236678  0.81102755     0.06800
C1277       C  0.19410183  0.56152660  0.81619614    -0.06300
H1278       H  0.15894340  0.60007166  0.82306440     0.07400
H1279       H  0.20814203  0.55304636  0.81011536     0.08600
Cu1280     Cu  0.14016523  0.56333390  0.85664857     0.44200
Cu1281     Cu  0.18026133  0.52156418  0.84210802     0.42000
Cu1282     Cu  0.14162283  0.51112482  0.88305523     0.43900
N1283       N  0.11926642  0.55457490  0.88127970    -0.35000
N1284       N  0.12000946  0.53537734  0.89079457    -0.29200
C1285       C  0.10494308  0.53452059  0.90626599    -0.05300
C1286       C  0.09425652  0.55410898  0.90661450     0.06900
C1287       C  0.10372041  0.56655992  0.89062744     0.00700
H1288       H  0.10227467  0.52076090  0.91683896     0.08300
H1289       H  0.09986693  0.58311703  0.88637182     0.07400
N1290       N  0.16224511  0.48759362  0.87152637    -0.36400
N1291       N  0.17628969  0.49117189  0.85592995    -0.28600
C1292       C  0.18565247  0.47227601  0.85056810    -0.03800
C1293       C  0.17710110  0.45613257  0.86357948     0.04800
C1294       C  0.16235320  0.46643512  0.87665478     0.02900
H1295       H  0.19720741  0.47030573  0.83769210     0.08000
H1296       H  0.15168545  0.45891118  0.88830793     0.06800
C1297       C  0.25673537  0.14485886  0.73420588     0.02000
C1298       C  0.23704842  0.15468275  0.72670791     0.02000
C1299       C  0.22866959  0.17346905  0.73730536     0.02000
C1300       C  0.23865282  0.18111352  0.75658651     0.02000
C1301       C  0.25862620  0.17166694  0.76381028     0.02000
C1302       C  0.26702032  0.15286631  0.75331704     0.02000
C1303       C  0.24637624  0.64962598  0.23628247     0.02000
C1304       C  0.23587468  0.65896534  0.25439449     0.02000
C1305       C  0.24491375  0.67836527  0.26351459     0.02000
C1306       C  0.26772988  0.68102500  0.26147035     0.02000
C1307       C  0.27686660  0.67526809  0.24101465     0.02000
C1308       C  0.26637346  0.65875767  0.22881595     0.02000
C1309       C  0.74576824  0.15719444  0.26882883     0.02000
C1310       C  0.73467766  0.16447243  0.24975756     0.02000
C1311       C  0.74404166  0.18177970  0.23756017     0.02000
C1312       C  0.76508866  0.18983010  0.24319568     0.02000
C1313       C  0.77695145  0.18016981  0.26063150     0.02000
C1314       C  0.76874795  0.15996216  0.26919691     0.02000
N1315       N  0.16610147  0.09912305  0.35223848    -0.27600
N1316       N  0.16668399  0.08045620  0.34196626    -0.35400
C1317       C  0.18122591  0.08198665  0.32593390     0.00800
C1318       C  0.18979384  0.10278794  0.32566882     0.06800
C1319       C  0.17958504  0.11312899  0.34251776    -0.06300
H1320       H  0.18517220  0.06884934  0.31525322     0.07400
H1321       H  0.18187538  0.12973167  0.34751021     0.08600
Cu1322     Cu  0.14625408  0.05430395  0.34855311     0.44200
Cu1323     Cu  0.14977943  0.10478364  0.38078013     0.42000
Cu1324     Cu  0.11549445  0.06204903  0.39667632     0.43900
N1325       N  0.12093342  0.03391392  0.35782401    -0.35000
N1326       N  0.10933988  0.03766381  0.37520017    -0.29200
C1327       C  0.09351543  0.02289004  0.37679303    -0.05300
C1328       C  0.09521327  0.00882150  0.35977367     0.06900
C1329       C  0.11281687  0.01628733  0.34796802     0.00700
H1330       H  0.08162003  0.02238107  0.38953518     0.08300
H1331       H  0.11918765  0.00948743  0.33333368     0.07400
N1332       N  0.12483150  0.08612098  0.41738587    -0.36400
N1333       N  0.13735246  0.10248767  0.41165592    -0.28600
C1334       C  0.14179996  0.11446519  0.42913566    -0.03800
C1335       C  0.13153148  0.10497919  0.44664045     0.04800
C1336       C  0.12099149  0.08707759  0.43851625     0.02900
H1337       H  0.15231619  0.12844336  0.42924001     0.08000
H1338       H  0.11186937  0.07507487  0.44752254     0.06800
N1339       N  0.15636182  0.11029370  0.63663096    -0.27600
N1340       N  0.15342073  0.09361706  0.64975866    -0.35400
C1341       C  0.16529565  0.09656959  0.66760014     0.00800
C1342       C  0.17597734  0.11621047  0.66590134     0.06800
C1343       C  0.16974080  0.12452930  0.64610558    -0.06300
H1344       H  0.16647829  0.08494393  0.68064474     0.07400
H1345       H  0.17518292  0.13950966  0.63873915     0.08600
Cu1346     Cu  0.13361875  0.06731171  0.64343969     0.44200
Cu1347     Cu  0.14528064  0.11165233  0.60507119     0.42000
Cu1348     Cu  0.11634973  0.06351237  0.58919973     0.43900
N1349       N  0.11232288  0.04363117  0.63311123    -0.35000
N1350       N  0.10629410  0.04206822  0.61283973    -0.29200
C1351       C  0.09204778  0.02573495  0.61094449    -0.05300
C1352       C  0.08873384  0.01669516  0.63106674     0.06900
C1353       C  0.10188989  0.02843894  0.64476398     0.00700
H1354       H  0.08420611  0.02117078  0.59612269     0.08300
H1355       H  0.10330745  0.02649320  0.66196904     0.07400
N1356       N  0.12672653  0.08717173  0.56788014    -0.36400
N1357       N  0.13706488  0.10506178  0.57337063    -0.28600
C1358       C  0.14148932  0.11665505  0.55545297    -0.03800
C1359       C  0.13340995  0.10542403  0.53799497     0.04800
C1360       C  0.12423378  0.08688566  0.54650967     0.02900
H1361       H  0.14991522  0.13201223  0.55516219     0.08000
H1362       H  0.11628131  0.07402736  0.53772594     0.06800
C1363       C  0.24418477  0.15141360  0.26555744     0.02000
C1364       C  0.26300039  0.14255809  0.25560198     0.02000
C1365       C  0.27081118  0.15191405  0.23606202     0.02000
C1366       C  0.26178325  0.17217522  0.22847160     0.02000
C1367       C  0.24354627  0.18225367  0.23916500     0.02000
C1368       C  0.23518067  0.17160353  0.25815457     0.02000
C1369       C  0.23309970  0.14070351  0.30426872    -0.02100
C1370       C  0.23199144  0.13751635  0.28172447     0.07500
C1371       C  0.21805337  0.12098655  0.27406055    -0.02300
C1372       C  0.20409472  0.10968840  0.28815583    -0.02300
C1373       C  0.20575785  0.11268582  0.31053338     0.07700
C1374       C  0.22160567  0.12703793  0.31840946    -0.02500
Br1375     Br  0.22867198  0.12731271  0.34872243    -0.01000
Br1376     Br  0.24754019  0.16485902  0.31706776    -0.01100
Br1377     Br  0.18123100  0.09208185  0.27613075    -0.01000
Br1378     Br  0.21546283  0.11551694  0.24375096    -0.01000
C1379       C  0.11345746  0.11327356  0.48135297    -0.02100
C1380       C  0.13282252  0.11063037  0.46966987     0.07500
C1381       C  0.15289694  0.11044010  0.48065922    -0.02300
C1382       C  0.15334169  0.11094145  0.50329798    -0.02300
C1383       C  0.13375565  0.11120863  0.51492364     0.07700
C1384       C  0.11393534  0.11352078  0.50389002    -0.02500
Br1385     Br  0.08729785  0.11662684  0.51979234    -0.01000
Br1386     Br  0.08607979  0.11607219  0.46649580    -0.01100
Br1387     Br  0.18067277  0.10947108  0.51834511    -0.01000
Br1388     Br  0.17968543  0.10709455  0.46508410    -0.01000
C1389       C  0.20305758  0.13386559  0.71780510    -0.02100
C1390       C  0.22259415  0.14349642  0.71044358     0.07500
C1391       C  0.22690327  0.14289899  0.68802405    -0.02300
C1392       C  0.21231410  0.13272473  0.67383588    -0.02300
C1393       C  0.19200522  0.12538306  0.68118737     0.07700
C1394       C  0.18734369  0.12631981  0.70326464    -0.02500
Br1395     Br  0.15895673  0.11845351  0.71383479    -0.01000
Br1396     Br  0.19843777  0.12835695  0.74793001    -0.01100
Br1397     Br  0.22102150  0.12753132  0.64443934    -0.01000
Br1398     Br  0.25174143  0.15616848  0.67518018    -0.01000
C1399       C  0.21385629  0.23130940  0.78464143    -0.02100
C1400       C  0.20937280  0.22248330  0.80510992     0.07500
C1401       C  0.21277943  0.20022572  0.80866288    -0.02300
C1402       C  0.21951986  0.18692374  0.79173998    -0.02300
C1403       C  0.22678300  0.19590583  0.77200866     0.07700
C1404       C  0.22378092  0.21854199  0.76871355    -0.02500
Br1405     Br  0.23299701  0.23349646  0.74331431    -0.01000
Br1406     Br  0.20501984  0.26062836  0.77759783    -0.01100
Br1407     Br  0.21564447  0.15620480  0.79507044    -0.01000
Br1408     Br  0.20974005  0.18779496  0.83705946    -0.01000
C1409       C  0.18930576  0.39819375  0.87977665    -0.02100
C1410       C  0.18154252  0.38687899  0.86180515     0.07500
C1411       C  0.17445556  0.39836695  0.84350387    -0.02300
C1412       C  0.17330439  0.42112676  0.84387073    -0.02300
C1413       C  0.18040488  0.43248831  0.86215558     0.07700
C1414       C  0.18901968  0.42097853  0.87984609    -0.02500
Br1415     Br  0.20020843  0.43643014  0.90428181    -0.01000
Br1416     Br  0.19989801  0.38234291  0.90444637    -0.01100
Br1417     Br  0.15979861  0.43641550  0.82025955    -0.01000
Br1418     Br  0.16552900  0.38279440  0.81826304    -0.01000
C1419       C  0.21072399  0.63373814  0.78622926    -0.02100
C1420       C  0.22060407  0.62597617  0.76726747     0.07500
C1421       C  0.21772892  0.60375381  0.76218754    -0.02300
C1422       C  0.20504392  0.59027179  0.77550494    -0.02300
C1423       C  0.19821027  0.59755266  0.79576443     0.07700
C1424       C  0.20165251  0.61934411  0.80126076    -0.02500
Br1425     Br  0.19579317  0.62958044  0.82988206    -0.01000
Br1426     Br  0.20654918  0.66425270  0.79076620    -0.01100
Br1427     Br  0.19578568  0.56225968  0.76511535    -0.01000
Br1428     Br  0.23122441  0.59016547  0.73817943    -0.01000
C1429       C  0.70725567  0.72096735  0.81381047    -0.02100
C1430       C  0.68476760  0.71904256  0.80998426     0.07500
C1431       C  0.67759874  0.70737990  0.79177058    -0.02300
C1432       C  0.69277701  0.69741821  0.77805528    -0.02300
C1433       C  0.71527977  0.70007521  0.78163919     0.07700
C1434       C  0.72221745  0.71308913  0.79882722    -0.02500
Br1435     Br  0.75197367  0.72240960  0.80073180    -0.01000
Br1436     Br  0.71811234  0.73291802  0.84031924    -0.01100
Br1437     Br  0.68245010  0.68465300  0.75186094    -0.01000
Br1438     Br  0.64736578  0.70730388  0.78341954    -0.01000
C1439       C  0.27143203  0.70215228  0.77735999    -0.02100
C1440       C  0.27903164  0.68252699  0.76839365     0.07500
C1441       C  0.30097280  0.67664952  0.77244856    -0.02300
C1442       C  0.31422692  0.68950787  0.78576855    -0.02300
C1443       C  0.30680864  0.70972304  0.79320262     0.07700
C1444       C  0.28548766  0.71621768  0.78830340    -0.02500
Br1445     Br  0.27538806  0.74486505  0.79566318    -0.01000
Br1446     Br  0.24104480  0.70888768  0.77775485    -0.01100
Br1447     Br  0.34202382  0.67821426  0.79514531    -0.01000
Br1448     Br  0.31437473  0.65174876  0.76007727    -0.01000
C1449       C  0.50607089  0.73665580  0.86341244    -0.02100
C1450       C  0.51658985  0.75088771  0.84911696     0.07500
C1451       C  0.50455527  0.76236317  0.83355154    -0.02300
C1452       C  0.48180194  0.76070927  0.83318016    -0.02300
C1453       C  0.47113696  0.74710594  0.84811243     0.07700
C1454       C  0.48340724  0.73451778  0.86270734    -0.02500
Br1455     Br  0.46921685  0.71421681  0.88174402    -0.01000
Br1456     Br  0.52263016  0.72112717  0.88487336    -0.01100
Br1457     Br  0.46540727  0.77854830  0.81342498    -0.01000
Br1458     Br  0.51934008  0.78067057  0.81305183    -0.01000
C1459       C  0.80157140  0.72440114  0.70963075    -0.02100
C1460       C  0.79541276  0.72077382  0.68801317     0.07500
C1461       C  0.77726133  0.70740736  0.68392737    -0.02300
C1462       C  0.76450256  0.69968080  0.70098965    -0.02300
C1463       C  0.77224737  0.70085103  0.72226169     0.07700
C1464       C  0.79107895  0.71317504  0.72642242    -0.02500
Br1465     Br  0.80113018  0.71714627  0.75546935    -0.01000
Br1466     Br  0.82210789  0.74678404  0.71718002    -0.01100
Br1467     Br  0.73506284  0.69137025  0.69492506    -0.01000
Br1468     Br  0.77024646  0.69792982  0.65527119    -0.01000
C1469       C  0.80607019  0.71294347  0.29910371    -0.02100
C1470       C  0.80217064  0.70964226  0.32121872     0.07500
C1471       C  0.78623184  0.69460716  0.32747183    -0.02300
C1472       C  0.77178632  0.68613757  0.31223990    -0.02300
C1473       C  0.77609340  0.68837899  0.28999073     0.07700
C1474       C  0.79430291  0.70100053  0.28376158    -0.02500
Br1475     Br  0.80145265  0.70507001  0.25388876    -0.01000
Br1476     Br  0.82540451  0.73553877  0.28916267    -0.01100
Br1477     Br  0.74511725  0.67495690  0.32328146    -0.01000
Br1478     Br  0.78481562  0.68443247  0.35689308    -0.01000
C1479       C  0.80334200  0.77029107  0.51311531    -0.02100
C1480       C  0.80168135  0.79016880  0.52403411     0.07500
C1481       C  0.79829818  0.80944047  0.51224556    -0.02300
C1482       C  0.79871667  0.80919041  0.48967242    -0.02300
C1483       C  0.80213027  0.78957649  0.47872126     0.07700
C1484       C  0.80345441  0.76997481  0.49050257    -0.02500
Br1485     Br  0.80787479  0.74278883  0.47602457    -0.01000
Br1486     Br  0.80784125  0.74362014  0.52889123    -0.01100
Br1487     Br  0.79521865  0.83590290  0.47373987    -0.01000
Br1488     Br  0.79341548  0.83629491  0.52713843    -0.01000
C1489       C  0.78374196  0.60633161  0.78808222    -0.02100
C1490       C  0.79556487  0.61385780  0.80605968     0.07500
C1491       C  0.79554798  0.63630879  0.81034042    -0.02300
C1492       C  0.78516042  0.65091776  0.79620666    -0.02300
C1493       C  0.77183273  0.64331864  0.77932150     0.07700
C1494       C  0.77098305  0.62075034  0.77569821    -0.02500
Br1495     Br  0.75247718  0.60870426  0.75416222    -0.01000
Br1496     Br  0.78610793  0.57659494  0.77877168    -0.01100
Br1497     Br  0.79053666  0.68154076  0.79972053    -0.01000
Br1498     Br  0.80816644  0.64747957  0.83644377    -0.01000
C1499       C  0.77742882  0.23599842  0.79589085    -0.02100
C1500       C  0.79883072  0.22974910  0.80106719     0.07500
C1501       C  0.80525538  0.20822406  0.79730385    -0.02300
C1502       C  0.79033242  0.19325615  0.78897209    -0.02300
C1503       C  0.77006412  0.20016391  0.78059016     0.07700
C1504       C  0.76365942  0.22189595  0.78445741    -0.02500
Br1505     Br  0.73647655  0.23356832  0.77489463    -0.01000
Br1506     Br  0.76599739  0.26320967  0.80618657    -0.01100
Br1507     Br  0.79639745  0.16284912  0.79286593    -0.01000
Br1508     Br  0.83475872  0.19901415  0.80240106    -0.01000
C1509       C  0.85107559  0.41219741  0.82236794    -0.02100
C1510       C  0.83922831  0.39991850  0.83744424     0.07500
C1511       C  0.82627399  0.41051844  0.85272655    -0.02300
C1512       C  0.82623382  0.43328948  0.85382357    -0.02300
C1513       C  0.83917518  0.44555061  0.83962266     0.07700
C1514       C  0.85116932  0.43497844  0.82354635    -0.02500
Br1515     Br  0.86826895  0.45173391  0.80354536    -0.01000
Br1516     Br  0.86822189  0.39773985  0.80096286    -0.01100
Br1517     Br  0.80985019  0.44755854  0.87593301    -0.01000
Br1518     Br  0.80904192  0.39369487  0.87256851    -0.01000
C1519       C  0.21677456  0.69734440  0.67296234    -0.02100
C1520       C  0.19636773  0.70524464  0.67928153     0.07500
C1521       C  0.18988074  0.70289311  0.70077651    -0.02300
C1522       C  0.20384518  0.69311163  0.71580503    -0.02300
C1523       C  0.22334856  0.68290177  0.70928242     0.07700
C1524       C  0.22975808  0.68539463  0.68750773    -0.02500
Br1525     Br  0.25597247  0.67317220  0.67650069    -0.01000
Br1526     Br  0.22766076  0.70422460  0.64461268    -0.01100
Br1527     Br  0.19758730  0.69755527  0.74564612    -0.01000
Br1528     Br  0.16142678  0.71222170  0.70986441    -0.01000
C1529       C  0.22349736  0.72382086  0.30019291    -0.02100
C1530       C  0.20328081  0.71421402  0.30472920     0.07500
C1531       C  0.19502143  0.69875132  0.29049738    -0.02300
C1532       C  0.20769060  0.69218559  0.27319649    -0.02300
C1533       C  0.23017117  0.69541896  0.27376482     0.07700
C1534       C  0.23669736  0.71519118  0.28377165    -0.02500
Br1535     Br  0.26035509  0.73308553  0.27372744    -0.01000
Br1536     Br  0.23296901  0.74851735  0.31653381    -0.01100
Br1537     Br  0.19460305  0.69661796  0.24565949    -0.01000
Br1538     Br  0.16581246  0.68809857  0.29284679    -0.01000
C1539       C  0.11610653  0.71636849  0.48022232    -0.02100
C1540       C  0.13638606  0.72154008  0.47105649     0.07500
C1541       C  0.15468556  0.72394426  0.48447692    -0.02300
C1542       C  0.15227256  0.72320475  0.50696074    -0.02300
C1543       C  0.13163161  0.71959459  0.51608389     0.07700
C1544       C  0.11371901  0.71552369  0.50264753    -0.02500
Br1545     Br  0.08569521  0.70929224  0.51500439    -0.01000
Br1546     Br  0.09147921  0.71030805  0.46202690    -0.01100
Br1547     Br  0.17688394  0.72964349  0.52505642    -0.01000
Br1548     Br  0.18280677  0.73007001  0.47234169    -0.01000
C1549       C  0.79014976  0.10885120  0.71533050    -0.02100
C1550       C  0.79366721  0.11452754  0.69363247     0.07500
C1551       C  0.78778987  0.13562332  0.68671220    -0.02300
C1552       C  0.77648556  0.14981627  0.70052449    -0.02300
C1553       C  0.77276894  0.14405506  0.72236513     0.07700
C1554       C  0.78128539  0.12398718  0.72969361    -0.02500
Br1555     Br  0.78353554  0.11798541  0.75998549    -0.01000
Br1556     Br  0.79599328  0.07985900  0.72566731    -0.01100
Br1557     Br  0.76678714  0.17674181  0.68832573    -0.01000
Br1558     Br  0.79667762  0.14613494  0.65871264    -0.01000
C1559       C  0.81494888  0.13607623  0.30073764    -0.02100
C1560       C  0.80676491  0.11595375  0.30743674     0.07500
C1561       C  0.78921891  0.10688392  0.29620211    -0.02300
C1562       C  0.77729876  0.11980980  0.28150088    -0.02300
C1563       C  0.78371860  0.14193182  0.27774490     0.07700
C1564       C  0.80530150  0.14674589  0.28328461    -0.02500
Br1565     Br  0.82476774  0.14986149  0.25976157    -0.01000
Br1566     Br  0.84131007  0.14754119  0.31266265    -0.01100
Br1567     Br  0.75290525  0.10586561  0.26778766    -0.01000
Br1568     Br  0.78114168  0.07707968  0.30171660    -0.01000
C1569       C  0.83919111  0.09521671  0.51469187    -0.02100
C1570       C  0.82981895  0.07768844  0.52592332     0.07500
C1571       C  0.81969082  0.06088854  0.51451616    -0.02300
C1572       C  0.82022608  0.06084195  0.49195281    -0.02300
C1573       C  0.83075792  0.07769943  0.48068360     0.07700
C1574       C  0.83946204  0.09535327  0.49206300    -0.02500
Br1575     Br  0.85320772  0.11888158  0.47677185    -0.01000
Br1576     Br  0.85275020  0.11835922  0.53041464    -0.01100
Br1577     Br  0.80693187  0.03735859  0.47644820    -0.01000
Br1578     Br  0.80621597  0.03725125  0.52990486    -0.01000
C1579       C  0.78242096  0.64478291  0.20899170    -0.02100
C1580       C  0.77350371  0.63598376  0.22813034     0.07500
C1581       C  0.77571145  0.61331101  0.23162162    -0.02300
C1582       C  0.78650413  0.60025858  0.21651491    -0.02300
C1583       C  0.79283459  0.60890133  0.19649035     0.07700
C1584       C  0.79049663  0.63131574  0.19275514    -0.02500
Br1585     Br  0.79747140  0.64397024  0.16511680    -0.01000
Br1586     Br  0.78672416  0.67546064  0.20573895    -0.01100
Br1587     Br  0.79437756  0.57087273  0.22433243    -0.01000
Br1588     Br  0.76422070  0.59872902  0.25625675    -0.01000
C1589       C  0.77673635  0.24145505  0.21156921    -0.02100
C1590       C  0.79105526  0.23418655  0.19539079     0.07500
C1591       C  0.79784500  0.21224362  0.19600379    -0.02300
C1592       C  0.78893105  0.19775586  0.21121606    -0.02300
C1593       C  0.77578381  0.20551760  0.22809496     0.07700
C1594       C  0.77127044  0.22781483  0.22890781    -0.02500
Br1595     Br  0.76089818  0.24064289  0.25489594    -0.01000
Br1596     Br  0.76236662  0.26917128  0.20948769    -0.01100
Br1597     Br  0.79810564  0.16780003  0.21083641    -0.01000
Br1598     Br  0.82131238  0.20186453  0.17827986    -0.01000
C1599       C  0.81579708  0.43214631  0.12616967    -0.02100
C1600       C  0.83039768  0.44572036  0.13714619     0.07500
C1601       C  0.84598022  0.43655600  0.15111682    -0.02300
C1602       C  0.84701378  0.41395433  0.15399938    -0.02300
C1603       C  0.83312024  0.40037408  0.14226113     0.07700
C1604       C  0.81735206  0.40947604  0.12850974    -0.02500
Br1605     Br  0.79836707  0.39076413  0.11242834    -0.01000
Br1606     Br  0.79444436  0.44457192  0.10709617    -0.01100
Br1607     Br  0.86768307  0.40146021  0.17378985    -0.01000
Br1608     Br  0.86634380  0.45492068  0.16591277    -0.01000
C1609       C  0.71253094  0.72789259  0.21134357    -0.02100
C1610       C  0.68978400  0.72595736  0.21345283     0.07500
C1611       C  0.68157254  0.70897014  0.22645554    -0.02300
C1612       C  0.69535118  0.69238306  0.23397534    -0.02300
C1613       C  0.71814048  0.69513228  0.23346094     0.07700
C1614       C  0.72638832  0.71373087  0.22275467    -0.02500
Br1615     Br  0.75709859  0.71867264  0.22086787    -0.01000
Br1616     Br  0.72556078  0.74806647  0.19127161    -0.01100
Br1617     Br  0.68184721  0.66546309  0.24171759    -0.01000
Br1618     Br  0.65177713  0.70907429  0.23613119    -0.01000
C1619       C  0.32558762  0.70194161  0.21144029    -0.02100
C1620       C  0.31784807  0.72328867  0.20866977     0.07500
C1621       C  0.29669810  0.72827523  0.21546874    -0.02300
C1622       C  0.28332522  0.71203525  0.22436330    -0.02300
C1623       C  0.29178469  0.69129298  0.22978556     0.07700
C1624       C  0.31315348  0.68628923  0.22262316    -0.02500
Br1625     Br  0.32605194  0.65809028  0.22590899    -0.01000
Br1626     Br  0.35238160  0.69321959  0.19777879    -0.01100
Br1627     Br  0.25233648  0.71682869  0.22371817    -0.01000
Br1628     Br  0.28577916  0.75746697  0.21274077    -0.01000
C1629       C  0.49421986  0.78028986  0.15582583    -0.02100
C1630       C  0.48171215  0.76123836  0.15536943     0.07500
C1631       C  0.49198435  0.74092703  0.15419218    -0.02300
C1632       C  0.51471247  0.73972437  0.15220380    -0.02300
C1633       C  0.52723095  0.75888648  0.15185052     0.07700
C1634       C  0.51692913  0.77911096  0.15463891    -0.02500
Br1635     Br  0.53375723  0.80527445  0.15802755    -0.01000
Br1636     Br  0.48014934  0.80813692  0.15786760    -0.01100
Br1637     Br  0.52836806  0.71188118  0.14861292    -0.01000
Br1638     Br  0.47474014  0.71485957  0.15405037    -0.01000
C1639       C  0.68958908  0.14192367  0.76890623    -0.02100
C1640       C  0.71160747  0.14274670  0.77558493     0.07500
C1641       C  0.71759321  0.13103370  0.79437225    -0.02300
C1642       C  0.70237272  0.11806649  0.80541046    -0.02300
C1643       C  0.68034160  0.11833009  0.79920807     0.07700
C1644       C  0.67397138  0.13147738  0.78172148    -0.02500
Br1645     Br  0.64351309  0.13674884  0.77596667    -0.01000
Br1646     Br  0.67966019  0.15244143  0.74157499    -0.01100
Br1647     Br  0.71261076  0.09852722  0.82761441    -0.01000
Br1648     Br  0.74753654  0.12966540  0.80330953    -0.01000
C1649       C  0.29219308  0.10424569  0.78215025    -0.02100
C1650       C  0.31421612  0.10999737  0.78360953     0.07500
C1651       C  0.32104315  0.13034477  0.77581124    -0.02300
C1652       C  0.30615498  0.14445721  0.76566721    -0.02300
C1653       C  0.28386333  0.13882012  0.76420771     0.07700
C1654       C  0.27708008  0.11894259  0.77356096    -0.02500
Br1655     Br  0.24681677  0.11298007  0.77833199    -0.01000
Br1656     Br  0.28242050  0.07580264  0.79108415    -0.01100
Br1657     Br  0.31731619  0.17134673  0.75480122    -0.01000
Br1658     Br  0.35072309  0.13954677  0.78019771    -0.01000
C1659       C  0.51052107  0.01986195  0.79278629    -0.02100
C1660       C  0.52155953  0.03877651  0.79901440     0.07500
C1661       C  0.50974502  0.05763643  0.80398830    -0.02300
C1662       C  0.48692680  0.05721992  0.80371369    -0.02300
C1663       C  0.47590318  0.03798204  0.79832779     0.07700
C1664       C  0.48774526  0.01952727  0.79225498    -0.02500
Br1665     Br  0.47268984  0.99359903  0.78361221    -0.01000
Br1666     Br  0.52665766  0.99407090  0.78589857    -0.01100
Br1667     Br  0.47093335  0.08234691  0.81293955    -0.01000
Br1668     Br  0.52465155  0.08336608  0.81348787    -0.01000
C1669       C  0.68418794  0.13390857  0.22848562    -0.02100
C1670       C  0.69337120  0.12030169  0.21286083     0.07500
C1671       C  0.71620843  0.12036423  0.21055503    -0.02300
C1672       C  0.72926813  0.13333771  0.22402256    -0.02300
C1673       C  0.71986426  0.14890544  0.23789012     0.07700
C1674       C  0.69687009  0.14976245  0.23867694    -0.02500
Br1675     Br  0.68109731  0.17377605  0.24981804    -0.01000
Br1676     Br  0.65447797  0.13000921  0.23780555    -0.01100
Br1677     Br  0.76033976  0.13016903  0.22201644    -0.01000
Br1678     Br  0.73023465  0.10427365  0.18798907    -0.01000
C1679       C  0.29098529  0.11358891  0.19161670    -0.02100
C1680       C  0.31379062  0.11458168  0.19382693     0.07500
C1681       C  0.32244560  0.12897576  0.20907399    -0.02300
C1682       C  0.30899065  0.13868251  0.22444715    -0.02300
C1683       C  0.28611302  0.13910434  0.22166176     0.07700
C1684       C  0.27747860  0.12692820  0.20432772    -0.02500
Br1685     Br  0.24667219  0.12574185  0.19947397    -0.01000
Br1686     Br  0.27763989  0.09285541  0.17263441    -0.01100
Br1687     Br  0.32336889  0.14711337  0.25031018    -0.01000
Br1688     Br  0.35265797  0.13752241  0.20800842    -0.01000
C1689       C  0.49357124  0.05974068  0.18628019    -0.02100
C1690       C  0.48145680  0.07189467  0.17128237     0.07500
C1691       C  0.49204534  0.08708394  0.15794272    -0.02300
C1692       C  0.51484657  0.08863553  0.15814608    -0.02300
C1693       C  0.52710830  0.07522645  0.17198720     0.07700
C1694       C  0.51634525  0.06151900  0.18673246    -0.02500
Br1695     Br  0.53290133  0.04493020  0.20736908    -0.01000
Br1696     Br  0.47906099  0.03959424  0.20519236    -0.01100
Br1697     Br  0.52925723  0.10783487  0.13822521    -0.01000
Br1698     Br  0.47519788  0.10542682  0.13906621    -0.01000
C1699       C  0.21957560  0.62616500  0.18649716    -0.02100
C1700       C  0.21738647  0.60400884  0.19164211     0.07500
C1701       C  0.22336074  0.59668434  0.21232052    -0.02300
C1702       C  0.23284198  0.61102101  0.22717239    -0.02300
C1703       C  0.23494565  0.63342557  0.22210143     0.07700
C1704       C  0.22689077  0.64083895  0.20205701    -0.02500
Br1705     Br  0.22228370  0.67137211  0.19712043    -0.01000
Br1706     Br  0.21364523  0.63665807  0.15780311    -0.01100
Br1707     Br  0.24162060  0.59886133  0.25426273    -0.01000
Br1708     Br  0.21708014  0.56720092  0.22116016    -0.01000
C1709       C  0.20236019  0.21004999  0.20413748    -0.02100
C1710       C  0.21412262  0.22696746  0.19410192     0.07500
C1711       C  0.23464124  0.23234462  0.20281013    -0.02300
C1712       C  0.24320567  0.22056437  0.22052089    -0.02300
C1713       C  0.23198249  0.20235458  0.22918628     0.07700
C1714       C  0.20960873  0.20159018  0.22391889    -0.02500
Br1715     Br  0.19030020  0.21338049  0.24497803    -0.01000
Br1716     Br  0.17359433  0.20196862  0.19500922    -0.01100
Br1717     Br  0.26716966  0.23331507  0.23534755    -0.01000
Br1718     Br  0.25238470  0.25442038  0.18936328    -0.01000
C1719       C  0.16450151  0.40521160  0.13751275    -0.02100
C1720       C  0.18230833  0.39246048  0.13118618     0.07500
C1721       C  0.20191183  0.40266024  0.12529247    -0.02300
C1722       C  0.20353823  0.42546990  0.12533550    -0.02300
C1723       C  0.18541466  0.43819891  0.13075055     0.07700
C1724       C  0.16594149  0.42797775  0.13702006    -0.02500
Br1725     Br  0.14114375  0.44516382  0.14504795    -0.01000
Br1726     Br  0.13816693  0.39144851  0.14726794    -0.01100
Br1727     Br  0.23019963  0.43935716  0.11675921    -0.01000
Br1728     Br  0.22606977  0.38545094  0.11577104    -0.01000
C1729       C  0.30685137  0.20343958  0.20019625    -0.02100
C1730       C  0.29770279  0.20820190  0.17997025     0.07500
C1731       C  0.27698067  0.19975921  0.17491577    -0.02300
C1732       C  0.26558019  0.18700390  0.19009505    -0.02300
C1733       C  0.27398302  0.18402785  0.21109478     0.07700
C1734       C  0.29447959  0.19300735  0.21603324    -0.02500
Br1735     Br  0.30408579  0.19552738  0.24534891    -0.01000
Br1736     Br  0.33682949  0.21022372  0.20638377    -0.01100
Br1737     Br  0.23770042  0.17550097  0.18220352    -0.01000
Br1738     Br  0.26307388  0.20692854  0.14796930    -0.01000
C1739       C  0.28887854  0.19126527  0.81493993    -0.02100
C1740       C  0.29402450  0.21271688  0.80876199     0.07500
C1741       C  0.28854934  0.21974930  0.78792199    -0.02300
C1742       C  0.27982844  0.20512609  0.77310673    -0.02300
C1743       C  0.27211271  0.18451730  0.77970315     0.07700
C1744       C  0.27664059  0.17782880  0.80115861    -0.02500
Br1745     Br  0.26657626  0.15092045  0.81297078    -0.01000
Br1746     Br  0.29997505  0.17940947  0.84162147    -0.01100
Br1747     Br  0.28235165  0.21246098  0.74320113    -0.01000
Br1748     Br  0.29137130  0.24982542  0.77956692    -0.01000
C1749       C  0.35791222  0.25461823  0.98479916    -0.02100
C1750       C  0.34049041  0.26307642  0.97261278     0.07500
C1751       C  0.32275786  0.27281842  0.98308622    -0.02300
C1752       C  0.32269569  0.27441830  0.00559225    -0.02300
C1753       C  0.34019937  0.26616450  0.01760850     0.07700
C1754       C  0.35781860  0.25633604  0.00725061    -0.02500
Br1755     Br  0.38213879  0.24581660  0.02387999    -0.01000
Br1756     Br  0.38177269  0.24014746  0.97090971    -0.01100
Br1757     Br  0.29919241  0.28884915  0.02003172    -0.01000
Br1758     Br  0.29918547  0.28526988  0.96674588    -0.01000
C1759       C  0.18647243  0.18377739  0.29421668    -0.02100
C1760       C  0.19302564  0.20302181  0.30449882     0.07500
C1761       C  0.21346242  0.21201178  0.29918445    -0.02300
C1762       C  0.22734565  0.20122419  0.28483505    -0.02300
C1763       C  0.21994434  0.18314708  0.27306542     0.07700
C1764       C  0.19878317  0.17529371  0.27724372    -0.02500
Br1765     Br  0.18409901  0.15714452  0.25694081    -0.01000
Br1766     Br  0.16150984  0.16770387  0.30407954    -0.01100
Br1767     Br  0.25711967  0.21035741  0.28308288    -0.01000
Br1768     Br  0.22251145  0.23977365  0.31014280    -0.01000
C1769       C  0.82337026  0.21462113  0.28660485    -0.02100
C1770       C  0.81518544  0.21694901  0.30750999     0.07500
C1771       C  0.79365231  0.21074512  0.31157019    -0.02300
C1772       C  0.78105543  0.20125172  0.29521419    -0.02300
C1773       C  0.79041422  0.19471715  0.27544200     0.07700
C1774       C  0.81163339  0.20299460  0.27088858    -0.02500
Br1775     Br  0.82601816  0.20037260  0.24380398    -0.01000
Br1776     Br  0.85003660  0.22944087  0.27891549    -0.01100
Br1777     Br  0.75018422  0.20108126  0.29905669    -0.01000
Br1778     Br  0.78120568  0.21476658  0.33969133    -0.01000
C1779       C  0.99235021  0.27056909  0.35300114    -0.02100
C1780       C  0.98113785  0.25205856  0.36051372     0.07500
C1781       C  0.99289036  0.23312487  0.36573214    -0.02300
C1782       C  0.01568204  0.23287193  0.36393681    -0.02300
C1783       C  0.02686023  0.25147730  0.35681372     0.07700
C1784       C  0.01512259  0.27024585  0.35115611    -0.02500
Br1785     Br  0.03039333  0.29565152  0.34113533    -0.01000
Br1786     Br  0.97659031  0.29644291  0.34509416    -0.01100
Br1787     Br  0.03178579  0.20751913  0.37268394    -0.01000
Br1788     Br  0.97800217  0.20806741  0.37707186    -0.01000
C1789       C  0.29170423  0.09044152  0.27615620    -0.02100
C1790       C  0.30031579  0.09768425  0.29585212     0.07500
C1791       C  0.29770513  0.11962666  0.30134611    -0.02300
C1792       C  0.28769254  0.13414526  0.28689897    -0.02300
C1793       C  0.27661732  0.12657466  0.26843554     0.07700
C1794       C  0.27865572  0.10426946  0.26337870    -0.02500
Br1795     Br  0.26372284  0.09134186  0.23975744    -0.01000
Br1796     Br  0.29908365  0.06197767  0.26558443    -0.01100
Br1797     Br  0.29256643  0.16467933  0.29104871    -0.01000
Br1798     Br  0.30634203  0.13003471  0.32924471    -0.01000
C1799       C  0.28888902  0.70669210  0.31428703    -0.02100
C1800       C  0.30828909  0.71495093  0.30565626     0.07500
C1801       C  0.31650826  0.70583670  0.28682768    -0.02300
C1802       C  0.30474076  0.68948965  0.27675844    -0.02300
C1803       C  0.28231568  0.68804263  0.28021141     0.07700
C1804       C  0.27582037  0.69268194  0.30184991    -0.02500
Br1805     Br  0.25163452  0.67933489  0.31656242    -0.01000
Br1806     Br  0.28059682  0.71459815  0.34306838    -0.01100
Br1807     Br  0.31929891  0.66217536  0.27738919    -0.01000
Br1808     Br  0.34483459  0.71307347  0.27620401    -0.01000
C1809       C  0.33860292  0.89709166  0.33517641    -0.02100
C1810       C  0.33370463  0.88518144  0.35397055     0.07500
C1811       C  0.32614624  0.89606984  0.37230062    -0.02300
C1812       C  0.32465788  0.91878421  0.37225884    -0.02300
C1813       C  0.33065756  0.93079095  0.35389123     0.07700
C1814       C  0.33694799  0.91987458  0.33509692    -0.02500
Br1815     Br  0.34494075  0.93613746  0.30976394    -0.01000
Br1816     Br  0.34955168  0.88245261  0.31018303    -0.01100
Br1817     Br  0.31442116  0.93354116  0.39750161    -0.01000
Br1818     Br  0.31787358  0.87988708  0.39762459    -0.01000
C1819       C  0.28129110  0.65478829  0.19029629    -0.02100
C1820       C  0.27827352  0.64680982  0.21151945     0.07500
C1821       C  0.28589981  0.62583643  0.21661015    -0.02300
C1822       C  0.29290375  0.61188346  0.20049562    -0.02300
C1823       C  0.29691308  0.61998568  0.17968782     0.07700
C1824       C  0.29181287  0.64182875  0.17490710    -0.02500
Br1825     Br  0.30095395  0.65496865  0.14813534    -0.01000
Br1826     Br  0.27265753  0.68348703  0.18167129    -0.01100
Br1827     Br  0.29572116  0.58142377  0.20726889    -0.01000
Br1828     Br  0.29122268  0.61759006  0.24604344    -0.01000
C1829       C  0.27456977  0.62668609  0.81769462    -0.02100
C1830       C  0.28887083  0.61037840  0.81066101     0.07500
C1831       C  0.29055595  0.60661665  0.78835996    -0.02300
C1832       C  0.27762930  0.61847416  0.77371929    -0.02300
C1833       C  0.26529967  0.63653723  0.78053219     0.07700
C1834       C  0.26475666  0.64096624  0.80283551    -0.02500
Br1835     Br  0.25343886  0.66741027  0.81414604    -0.01000
Br1836     Br  0.26682794  0.62878654  0.84769136    -0.01100
Br1837     Br  0.27991999  0.61160840  0.74372028    -0.01000
Br1838     Br  0.31231902  0.58733394  0.77688195    -0.01000
C1839       C  0.34536307  0.57230340  0.98079337    -0.02100
C1840       C  0.35704710  0.58909514  0.97056573     0.07500
C1841       C  0.36597309  0.60599080  0.98283179    -0.02300
C1842       C  0.36429775  0.60540474  0.00537378    -0.02300
C1843       C  0.35350777  0.58807114  0.01556205     0.07700
C1844       C  0.34355869  0.57185402  0.00324686    -0.02500
Br1845     Br  0.32810933  0.54854898  0.01728751    -0.01000
Br1846     Br  0.33197810  0.54965881  0.96414146    -0.01100
Br1847     Br  0.37760267  0.62770671  0.02243280    -0.01000
Br1848     Br  0.38166736  0.62911345  0.96886241    -0.01000
C1849       C  0.71962695  0.20428422  0.18475382    -0.02100
C1850       C  0.70265069  0.21737939  0.19245951     0.07500
C1851       C  0.70019080  0.21959014  0.21489591    -0.02300
C1852       C  0.71480351  0.20928734  0.22912000    -0.02300
C1853       C  0.73007604  0.19403203  0.22153922     0.07700
C1854       C  0.73193783  0.19140503  0.19902053    -0.02500
Br1855     Br  0.74967778  0.16949043  0.18652679    -0.01000
Br1856     Br  0.72754427  0.20513670  0.15469436    -0.01100
Br1857     Br  0.71308134  0.21610310  0.25922050    -0.01000
Br1858     Br  0.67581284  0.23499979  0.22685823    -0.01000
C1859       C  0.72839820  0.18831953  0.81351403    -0.02100
C1860       C  0.72294838  0.18579804  0.79141636     0.07500
C1861       C  0.70247258  0.19381076  0.78462339    -0.02300
C1862       C  0.68684121  0.20061296  0.79952113    -0.02300
C1863       C  0.69261896  0.20398033  0.82111837     0.07700
C1864       C  0.71389068  0.19871161  0.82773426    -0.02500
Br1865     Br  0.72404368  0.20744357  0.85577867    -0.01000
Br1866     Br  0.75518312  0.17822682  0.82560729    -0.01100
Br1867     Br  0.65719115  0.20408044  0.79005456    -0.01000
Br1868     Br  0.69705187  0.20018125  0.75479938    -0.01000
C1869       C  0.64357269  0.25454615  0.99814082    -0.02100
C1870       C  0.63318714  0.23826425  0.98610875     0.07500
C1871       C  0.62275804  0.22099543  0.99685440    -0.02300
C1872       C  0.62214809  0.22038214  0.01948210    -0.02300
C1873       C  0.63191338  0.23703223  0.03143132     0.07700
C1874       C  0.64308590  0.25381960  0.02072753    -0.02500
Br1875     Br  0.65769239  0.27589136  0.03710627    -0.01000
Br1876     Br  0.65829099  0.27806629  0.98370743    -0.01100
Br1877     Br  0.60703904  0.19733162  0.03418652    -0.01000
Br1878     Br  0.60782706  0.19911283  0.98058441    -0.01000
C1879       C  0.27862896  0.09140927  0.71071996    -0.02100
C1880       C  0.29482180  0.09884233  0.69636465     0.07500
C1881       C  0.29754354  0.12153258  0.69402127    -0.02300
C1882       C  0.28645423  0.13593030  0.70767780    -0.02300
C1883       C  0.26890930  0.12864647  0.72049253     0.07700
C1884       C  0.26422005  0.10615043  0.72034891    -0.02500
Br1885     Br  0.23734602  0.09439235  0.73045063    -0.01000
Br1886     Br  0.27694949  0.06140664  0.71975205    -0.01100
Br1887     Br  0.29432740  0.16616523  0.70683874    -0.01000
Br1888     Br  0.31410389  0.13375076  0.67055165    -0.01000
C1889       C  0.28214841  0.72910128  0.70977144    -0.02100
C1890       C  0.30309826  0.72093936  0.70547488     0.07500
C1891       C  0.30722140  0.69879993  0.70908994    -0.02300
C1892       C  0.29046393  0.68502009  0.71586951    -0.02300
C1893       C  0.27044798  0.69342268  0.72317824     0.07700
C1894       C  0.26638757  0.71584198  0.71977662    -0.02500
Br1895     Br  0.23978990  0.72948880  0.72801310    -0.01000
Br1896     Br  0.27413700  0.75802545  0.70051282    -0.01100
Br1897     Br  0.29416639  0.65446678  0.71138305    -0.01000
Br1898     Br  0.33611881  0.68703135  0.70636956    -0.01000
C1899       C  0.34083289  0.89503391  0.64403600    -0.02100
C1900       C  0.34629215  0.88522174  0.66389143     0.07500
C1901       C  0.34798816  0.89813512  0.68245156    -0.02300
C1902       C  0.34574706  0.92080082  0.68080956    -0.02300
C1903       C  0.34189136  0.93060816  0.66069171     0.07700
C1904       C  0.33893534  0.91767303  0.64242556    -0.02500
Br1905     Br  0.33301352  0.93115380  0.61497210    -0.01000
Br1906     Br  0.33563599  0.87759693  0.61892108    -0.01100
Br1907     Br  0.34973113  0.93863381  0.70579566    -0.01000
Br1908     Br  0.35535326  0.88527602  0.70984410    -0.01000
C1909       C  0.20448317  0.21322647  0.69649669    -0.02100
C1910       C  0.18192944  0.21036832  0.69929447     0.07500
C1911       C  0.17477287  0.19597609  0.71558155    -0.02300
C1912       C  0.18973839  0.18668040  0.73005338    -0.02300
C1913       C  0.21218997  0.18708526  0.72539420     0.07700
C1914       C  0.21921214  0.20004862  0.70788110    -0.02500
Br1915     Br  0.24951031  0.20254492  0.70096390    -0.01000
Br1916     Br  0.21599692  0.23694835  0.67950860    -0.01100
Br1917     Br  0.17859052  0.17659341  0.75706614    -0.01000
Br1918     Br  0.14486317  0.18676766  0.71732043    -0.01000
C1919       C  0.81971248  0.20256184  0.72620786    -0.02100
C1920       C  0.81134078  0.22000895  0.71384951     0.07500
C1921       C  0.78864465  0.22335005  0.71369528    -0.02300
C1922       C  0.77493524  0.20983714  0.72598113    -0.02300
C1923       C  0.78304911  0.19103235  0.73644749     0.07700
C1924       C  0.80568221  0.18717636  0.73564684    -0.02500
Br1925     Br  0.81839688  0.16039937  0.74515532    -0.01000
Br1926     Br  0.85047725  0.20024691  0.73206795    -0.01100
Br1927     Br  0.74423337  0.21541144  0.72506769    -0.01000
Br1928     Br  0.77522055  0.24449876  0.69481819    -0.01000
C1929       C  0.98017819  0.27567290  0.66472537    -0.02100
C1930       C  0.97131785  0.25681049  0.65553393     0.07500
C1931       C  0.98503175  0.23964090  0.64958166    -0.02300
C1932       C  0.00765028  0.24198942  0.65133694    -0.02300
C1933       C  0.01646149  0.26108135  0.65998089     0.07700
C1934       C  0.00273003  0.27775150  0.66698617    -0.02500
Br1935     Br  0.01497693  0.30378511  0.67899136    -0.01000
Br1936     Br  0.96150000  0.29870005  0.67438290    -0.01100
Br1937     Br  0.02659050  0.22004749  0.63995278    -0.01000
Br1938     Br  0.97294274  0.21345719  0.63782962    -0.01000
C1939       C  0.74304227  0.13921446  0.30727530    -0.02100
C1940       C  0.73341913  0.14807855  0.28832521     0.07500
C1941       C  0.71069954  0.14865383  0.28905974    -0.02300
C1942       C  0.69970331  0.13097415  0.29813783    -0.02300
C1943       C  0.71095036  0.11684686  0.31204765     0.07700
C1944       C  0.73230682  0.12212674  0.31800372    -0.02500
Br1945     Br  0.74630134  0.10676493  0.34125834    -0.01000
Br1946     Br  0.76600372  0.15357804  0.32266744    -0.01100
Br1947     Br  0.66871437  0.12917333  0.29504947    -0.01000
Br1948     Br  0.69920535  0.17578967  0.29866769    -0.01000
C1949       C  0.69493288  0.71196538  0.29359987    -0.02100
C1950       C  0.70093943  0.73370250  0.29676760     0.07500
C1951       C  0.72211053  0.74029801  0.29135014    -0.02300
C1952       C  0.73619564  0.72601404  0.28060216    -0.02300
C1953       C  0.73045256  0.70386273  0.27778529     0.07700
C1954       C  0.71020323  0.69694035  0.28610950    -0.02500
Br1955     Br  0.70371284  0.66660437  0.28956014    -0.01000
Br1956     Br  0.66530263  0.70268746  0.29781902    -0.01100
Br1957     Br  0.76238917  0.73851901  0.26986370    -0.01000
Br1958     Br  0.73259885  0.76857952  0.29985654    -0.01000
C1959       C  0.63533399  0.91332851  0.32165102    -0.02100
C1960       C  0.65281284  0.90141164  0.33016642     0.07500
C1961       C  0.67152918  0.91218498  0.33741760    -0.02300
C1962       C  0.67219550  0.93497432  0.33750721    -0.02300
C1963       C  0.65416967  0.94696471  0.33005282     0.07700
C1964       C  0.63608895  0.93606906  0.32138801    -0.02500
Br1965     Br  0.61232645  0.95230217  0.30904479    -0.01000
Br1966     Br  0.61008401  0.89842156  0.31094099    -0.01100
Br1967     Br  0.69705653  0.94951363  0.34953491    -0.01000
Br1968     Br  0.69574305  0.89561485  0.34829554    -0.01000
C1969       C  0.18720765  0.62596443  0.27671653    -0.02100
C1970       C  0.19494874  0.62071816  0.29745615     0.07500
C1971       C  0.21650614  0.62606033  0.30281572    -0.02300
C1972       C  0.22988760  0.63662719  0.28775223    -0.02300
C1973       C  0.22119690  0.64513112  0.26832763     0.07700
C1974       C  0.19974346  0.63882764  0.26256476    -0.02500
Br1975     Br  0.18690962  0.64566504  0.23516104    -0.01000
Br1976     Br  0.16036077  0.61335023  0.26651303    -0.01100
Br1977     Br  0.26100028  0.63440214  0.29166012    -0.01000
Br1978     Br  0.22814394  0.61925401  0.33085935    -0.01000
C1979       C  0.79526998  0.61893112  0.30401156    -0.02100
C1980       C  0.81790133  0.62141649  0.30107078     0.07500
C1981       C  0.82511194  0.63569121  0.28472339    -0.02300
C1982       C  0.81016906  0.64552725  0.27048491    -0.02300
C1983       C  0.78760831  0.64496525  0.27480464     0.07700
C1984       C  0.78051518  0.63179406  0.29216548    -0.02500
Br1985     Br  0.75008984  0.62895311  0.29855916    -0.01000
Br1986     Br  0.78361744  0.59641225  0.32245424    -0.01100
Br1987     Br  0.82164041  0.65708336  0.24425031    -0.01000
Br1988     Br  0.85532275  0.64385530  0.28259207    -0.01000
C1989       C  0.99610950  0.57812740  0.35560473    -0.02100
C1990       C  0.98387866  0.56717789  0.33984142     0.07500
C1991       C  0.99461880  0.55761305  0.32232582    -0.02300
C1992       C  0.01737784  0.55885745  0.32070352    -0.02300
C1993       C  0.02958396  0.56892531  0.33695305     0.07700
C1994       C  0.01890012  0.57868377  0.35432475    -0.02500
Br1995     Br  0.03561167  0.59174430  0.37704036    -0.01000
Br1996     Br  0.98176136  0.59263701  0.37894005    -0.01100
Br1997     Br  0.03197962  0.54661060  0.29629565    -0.01000
Br1998     Br  0.97845390  0.54111410  0.30154181    -0.01000
C1999       C  0.70796401  0.61472472  0.21203621    -0.02100
C2000       C  0.70339065  0.62165491  0.19092261     0.07500
C2001       C  0.71099248  0.64219890  0.18415709    -0.02300
C2002       C  0.72435116  0.65476158  0.19773031    -0.02300
C2003       C  0.72805280  0.64833259  0.21938117     0.07700
C2004       C  0.71839517  0.62870770  0.22646176    -0.02500
Br2005     Br  0.71567198  0.62219225  0.25650018    -0.01000
Br2006     Br  0.70129932  0.58553856  0.22137658    -0.01100
Br2007     Br  0.73706268  0.68028485  0.18544082    -0.01000
Br2008     Br  0.70180962  0.65431574  0.15687243    -0.01000
C2009       C  0.71656375  0.63902983  0.82538810    -0.02100
C2010       C  0.69811068  0.62859048  0.81699276     0.07500
C2011       C  0.69395882  0.63045609  0.79477460    -0.02300
C2012       C  0.70873907  0.64145371  0.78128269    -0.02300
C2013       C  0.72562860  0.65433564  0.78998921     0.07700
C2014       C  0.72859260  0.65357204  0.81258120    -0.02500
Br2015     Br  0.74684851  0.67335118  0.82759533    -0.01000
Br2016     Br  0.72710104  0.63194954  0.85386694    -0.01100
Br2017     Br  0.70571994  0.63754744  0.75088781    -0.01000
Br2018     Br  0.66733083  0.61948424  0.78256550    -0.01000
C2019       C  0.64587055  0.60085965  0.01656222    -0.02100
C2020       C  0.65195721  0.58128950  0.02666198     0.07500
C2021       C  0.65800980  0.56343282  0.01411315    -0.02300
C2022       C  0.65682286  0.56469970  0.99157532    -0.02300
C2023       C  0.64935736  0.58383662  0.98139384     0.07700
C2024       C  0.64449286  0.60213634  0.99397330    -0.02500
Br2025     Br  0.63436698  0.62849313  0.98050816    -0.01000
Br2026     Br  0.63826061  0.62553581  0.03377711    -0.01100
Br2027     Br  0.66598474  0.54022747  0.97475288    -0.01000
Br2028     Br  0.66808945  0.53719932  0.02793304    -0.01000
C2029       C  0.21731249  0.62565065  0.70382250    -0.02100
C2030       C  0.20972307  0.63855316  0.72101503     0.07500
C2031       C  0.18697326  0.63949624  0.72431546    -0.02300
C2032       C  0.17264034  0.62984345  0.70965158    -0.02300
C2033       C  0.18029069  0.61466693  0.69472763     0.07700
C2034       C  0.20291875  0.61233509  0.69217249    -0.02500
Br2035     Br  0.21477606  0.58947134  0.67471414    -0.01000
Br2036     Br  0.24782233  0.62362061  0.69766854    -0.01100
Br2037     Br  0.14270142  0.63925227  0.70900800    -0.01000
Br2038     Br  0.17396649  0.65062825  0.74976576    -0.01000
C2039       C  0.78630287  0.62763880  0.70531871    -0.02100
C2040       C  0.80914775  0.62818572  0.70673052     0.07500
C2041       C  0.81878414  0.64288796  0.72113647    -0.02300
C2042       C  0.80589411  0.65496891  0.73543680    -0.02300
C2043       C  0.78293649  0.65553421  0.73330347     0.07700
C2044       C  0.77357358  0.64217887  0.71732169    -0.02500
Br2045     Br  0.74291085  0.64232969  0.71209967    -0.01000
Br2046     Br  0.77175292  0.60560922  0.68868782    -0.01100
Br2047     Br  0.82096549  0.66834951  0.75861252    -0.01000
Br2048     Br  0.84980693  0.64793063  0.72060194    -0.01000
C2049       C  0.97879411  0.53314284  0.67720163    -0.02100
C2050       C  0.96836104  0.55344812  0.67673812     0.07500
C2051       C  0.98088180  0.57255502  0.67647801    -0.02300
C2052       C  0.00368003  0.57134715  0.67523119    -0.02300
C2053       C  0.01413766  0.55097932  0.67513795     0.07700
C2054       C  0.00157841  0.53191236  0.67679527    -0.02500
Br2055     Br  0.01551125  0.50395142  0.67865305    -0.01000
Br2056     Br  0.96178391  0.50688308  0.67810001    -0.01100
Br2057     Br  0.02014833  0.59764898  0.67120227    -0.01000
Br2058     Br  0.96677456  0.60045696  0.67600716    -0.01000
C2059       C  0.72526605  0.10974085  0.73438665    -0.02100
C2060       C  0.72767555  0.13231460  0.73027631     0.07500
C2061       C  0.72006196  0.14055315  0.71032766    -0.02300
C2062       C  0.71259194  0.12663062  0.69420489    -0.02300
C2063       C  0.71001848  0.10439276  0.69848379     0.07700
C2064       C  0.71580286  0.09611962  0.71883196    -0.02500
Br2065     Br  0.70971040  0.06614895  0.72588025    -0.01000
Br2066     Br  0.73431599  0.09629028  0.76073127    -0.01100
Br2067     Br  0.70709298  0.13819682  0.66578846    -0.01000
Br2068     Br  0.71654587  0.17123549  0.70576451    -0.01000
C2069       C  0.70620078  0.73224858  0.71779355    -0.02100
C2070       C  0.72121744  0.74427021  0.70530356     0.07500
C2071       C  0.74177273  0.74878914  0.71460009    -0.02300
C2072       C  0.74754820  0.73902728  0.73439700    -0.02300
C2073       C  0.73411658  0.72280099  0.74321314     0.07700
C2074       C  0.71203203  0.72593902  0.73867465    -0.02500
Br2075     Br  0.69786990  0.74503889  0.75851828    -0.01000
Br2076     Br  0.67598805  0.72995493  0.71022236    -0.01100
Br2077     Br  0.76490026  0.75573397  0.75372023    -0.01000
Br2078     Br  0.76246696  0.76764456  0.70077691    -0.01000
C2079       C  0.69238307  0.90982208  0.60643449    -0.02100
C2080       C  0.68992305  0.89978013  0.62668673     0.07500
C2081       C  0.68946044  0.91257196  0.64534954    -0.02300
C2082       C  0.69020721  0.93532559  0.64367196    -0.02300
C2083       C  0.69207653  0.94542122  0.62332230     0.07700
C2084       C  0.69362885  0.93253253  0.60477606    -0.02500
Br2085     Br  0.69779138  0.94594273  0.57698163    -0.01000
Br2086     Br  0.69454417  0.89245255  0.58087789    -0.01100
Br2087     Br  0.68647901  0.95240269  0.66925448    -0.01000
Br2088     Br  0.68622572  0.89911792  0.67324865    -0.01000
C2089       C  0.93300299  0.86636925  0.33907229    -0.02100
C2090       C  0.95436415  0.86253455  0.34625798     0.07500
C2091       C  0.95948614  0.84288237  0.35681849    -0.02300
C2092       C  0.94307790  0.82780304  0.36143264    -0.02300
C2093       C  0.92146770  0.83256100  0.35599244     0.07700
C2094       C  0.91647058  0.85155162  0.34434718    -0.02500
Br2095     Br  0.88681154  0.85758834  0.33644704    -0.01000
Br2096     Br  0.92604719  0.89242638  0.32322864    -0.01100
Br2097     Br  0.94998841  0.80108894  0.37619061    -0.01000
Br2098     Br  0.98898116  0.83672708  0.36537123    -0.01000
C2099       C  0.05900188  0.82860531  0.33296400    -0.02100
C2100       C  0.07695972  0.83035248  0.34685773     0.07500
C2101       C  0.08132345  0.85009795  0.35713897    -0.02300
C2102       C  0.06687877  0.86750778  0.35483484    -0.02300
C2103       C  0.04766091  0.86504843  0.34283869     0.07700
C2104       C  0.04421732  0.84589549  0.33106307    -0.02500
Br2105     Br  0.01868635  0.84263090  0.31339500    -0.01000
Br2106     Br  0.05395365  0.80208634  0.31756228    -0.01100
Br2107     Br  0.07397645  0.89505884  0.36730753    -0.01000
Br2108     Br  0.10723097  0.85338286  0.37427833    -0.01000
C2109       C  0.91536376  0.96575523  0.36659913    -0.02100
C2110       C  0.91812270  0.98710378  0.35892226     0.07500
C2111       C  0.93695690  0.99265929  0.34729882    -0.02300
C2112       C  0.95318982  0.97704438  0.34385339    -0.02300
C2113       C  0.95084706  0.95595460  0.35238801     0.07700
C2114       C  0.93178539  0.95030066  0.36359894    -0.02500
Br2115     Br  0.92782802  0.92123069  0.37458179    -0.01000
Br2116     Br  0.88867547  0.95737776  0.38055272    -0.01100
Br2117     Br  0.97928877  0.98507011  0.32871004    -0.01000
Br2118     Br  0.94133320  0.02201162  0.33732775    -0.01000
C2119       C  0.05261013  0.97260629  0.33414796    -0.02100
C2120       C  0.04770388  0.95815709  0.35139644     0.07500
C2121       C  0.06020829  0.95965013  0.37065080    -0.02300
C2122       C  0.07687050  0.97510675  0.37242455    -0.02300
C2123       C  0.08068561  0.99012172  0.35576496     0.07700
C2124       C  0.06886565  0.98854254  0.33647896    -0.02500
Br2125     Br  0.07393993  0.00917345  0.31354647    -0.01000
Br2126     Br  0.03654801  0.97228348  0.30743229    -0.01100
Br2127     Br  0.09528596  0.97516224  0.39768456    -0.01000
Br2128     Br  0.05524360  0.94126919  0.39556747    -0.01000
C2129       C  0.95936202  0.84587499  0.63412848    -0.02100
C2130       C  0.95724639  0.86354309  0.64824657     0.07500
C2131       C  0.93851616  0.86527823  0.66114297    -0.02300
C2132       C  0.92146036  0.85028188  0.65882866    -0.02300
C2133       C  0.92299559  0.83366327  0.64356152     0.07700
C2134       C  0.94223180  0.83103331  0.63177614    -0.02500
Br2135     Br  0.94489779  0.80709418  0.61220826    -0.01000
Br2136     Br  0.98578042  0.84175979  0.61808317    -0.01100
Br2137     Br  0.89543270  0.85322788  0.67565146    -0.01000
Br2138     Br  0.93516162  0.88925155  0.68058920    -0.01000
C2139       C  0.93254574  0.95441526  0.63647907    -0.02100
C2140       C  0.95088252  0.95728435  0.64977146     0.07500
C2141       C  0.95215619  0.97582935  0.66290867    -0.02300
C2142       C  0.93602660  0.99203293  0.66156202    -0.02300
C2143       C  0.91837168  0.98973564  0.64728882     0.07700
C2144       C  0.91641445  0.97052769  0.63524403    -0.02500
Br2145     Br  0.89123109  0.96580184  0.61738317    -0.01000
Br2146     Br  0.92891142  0.92791221  0.62051342    -0.01100
Br2147     Br  0.93910866  0.01810323  0.67816554    -0.01000
Br2148     Br  0.97663316  0.97993787  0.68185776    -0.01000
C2149       C  0.04765119  0.84852409  0.65477859    -0.02100
C2150       C  0.05027890  0.86824590  0.64342180     0.07500
C2151       C  0.06800191  0.87088616  0.62936061    -0.02300
C2152       C  0.08225907  0.85353256  0.62573801    -0.02300
C2153       C  0.07912946  0.83363682  0.63646889     0.07700
C2154       C  0.06210756  0.83127953  0.65132046    -0.02500
Br2155     Br  0.05762398  0.80384863  0.66571980    -0.01000
Br2156     Br  0.02328074  0.84428670  0.67377942    -0.01100
Br2157     Br  0.10604616  0.85690440  0.60591015    -0.01000
Br2158     Br  0.07310883  0.89842169  0.61539145    -0.01000
C2159       C  0.05110358  0.00147998  0.63093768    -0.02100
C2160       C  0.07315967  0.99928580  0.63668199     0.07500
C2161       C  0.08030387  0.98012029  0.64701459    -0.02300
C2162       C  0.06565743  0.96297755  0.65076645    -0.02300
C2163       C  0.04396114  0.96478951  0.64387771     0.07700
C2164       C  0.03664128  0.98418897  0.63428404    -0.02500
Br2165     Br  0.00657040  0.98722420  0.62602432    -0.01000
Br2166     Br  0.04028328  0.02847557  0.61927377    -0.01100
Br2167     Br  0.07560326  0.93650082  0.66416967    -0.01000
Br2168     Br  0.11041594  0.97658975  0.65474920    -0.01000
C2169       C  0.35101512  0.86618899  0.92889486    -0.02100
C2170       C  0.33770424  0.86578424  0.94736458     0.07500
C2171       C  0.32463347  0.84738422  0.95155195    -0.02300
C2172       C  0.32663996  0.82883313  0.93865968    -0.02300
C2173       C  0.34107118  0.82884630  0.92119609     0.07700
C2174       C  0.35247331  0.84786170  0.91576534    -0.02500
Br2175     Br  0.37009079  0.84886615  0.89016331    -0.01000
Br2176     Br  0.36741708  0.89181525  0.92123438    -0.01100
Br2177     Br  0.31097411  0.80274097  0.94593902    -0.01000
Br2178     Br  0.30507225  0.84659994  0.97571397    -0.01000
C2179       C  0.34591174  0.87193552  0.06035560    -0.02100
C2180       C  0.34808505  0.86740729  0.03834867     0.07500
C2181       C  0.35190957  0.84595399  0.03174825    -0.02300
C2182       C  0.35281859  0.82905600  0.04701393    -0.02300
C2183       C  0.35081340  0.83360899  0.06904717     0.07700
C2184       C  0.34738688  0.85511300  0.07569496    -0.02500
Br2185     Br  0.34639902  0.86181574  0.10587633    -0.01000
Br2186     Br  0.34303043  0.90144943  0.06959812    -0.01100
Br2187     Br  0.35674125  0.79955823  0.03775819    -0.01000
Br2188     Br  0.35692504  0.83976470  0.00188654    -0.01000
C2189       C  0.35130561  0.99204142  0.92383015    -0.02100
C2190       C  0.34579797  0.98348253  0.90366363     0.07500
C2191       C  0.33567075  0.96308494  0.90241773    -0.02300
C2192       C  0.33252182  0.95061931  0.92119556    -0.02300
C2193       C  0.34017825  0.95826414  0.94109716     0.07700
C2194       C  0.34844178  0.97944969  0.94251320    -0.02500
Br2195     Br  0.35480240  0.99154923  0.97015406    -0.01000
Br2196     Br  0.36342277  0.02077601  0.92575354    -0.01100
Br2197     Br  0.31782076  0.92310886  0.91964984    -0.01000
Br2198     Br  0.32652083  0.95215357  0.87494784    -0.01000
C2199       C  0.33862936  0.96719919  0.05293197    -0.02100
C2200       C  0.35314245  0.96414167  0.03555428     0.07500
C2201       C  0.37152675  0.97794690  0.03381071    -0.02300
C2202       C  0.37519174  0.99431737  0.04903909    -0.02300
C2203       C  0.36113311  0.99673566  0.06669182     0.07700
C2204       C  0.34295704  0.98299322  0.06863601    -0.02500
Br2205     Br  0.32486083  0.98435305  0.09388501    -0.01000
Br2206     Br  0.31307007  0.94937843  0.05640993    -0.01100
Br2207     Br  0.39931637  0.01401217  0.04509391    -0.01000
Br2208     Br  0.39201632  0.97537859  0.01044791    -0.01000
C2209       C  0.95798867  0.27122660  0.93542686    -0.02100
C2210       C  0.95371190  0.25838059  0.95373442     0.07500
C2211       C  0.93268300  0.24996707  0.95701817    -0.02300
C2212       C  0.91568754  0.25581349  0.94296294    -0.02300
C2213       C  0.91983432  0.26932080  0.92505864     0.07700
C2214       C  0.94119064  0.27648290  0.92101298    -0.02500
Br2215     Br  0.94781347  0.29298221  0.89538109    -0.01000
Br2216     Br  0.98713632  0.28118103  0.92973432    -0.01100
Br2217     Br  0.88642100  0.24677212  0.94935140    -0.01000
Br2218     Br  0.92674791  0.23135046  0.98135369    -0.01000
C2219       C  0.06613583  0.24478526  0.92356673    -0.02100
C2220       C  0.08478242  0.25665971  0.92940291     0.07500
C2221       C  0.08674711  0.26464548  0.95046706    -0.02300
C2222       C  0.06955313  0.26228750  0.96503909    -0.02300
C2223       C  0.05027808  0.25178760  0.95875342     0.07700
C2224       C  0.04884328  0.24243391  0.93820691    -0.02500
Br2225     Br  0.02258511  0.22794285  0.92946504    -0.01000
Br2226     Br  0.06359922  0.23291925  0.89511653    -0.01100
Br2227     Br  0.07258890  0.27338447  0.99381787    -0.01000
Br2228     Br  0.11326412  0.27844285  0.95969028    -0.01000
C2229       C  0.94558602  0.24627134  0.06241103    -0.02100
C2230       C  0.94721795  0.25681647  0.04230341     0.07500
C2231       C  0.92956498  0.26919510  0.03453560    -0.02300
C2232       C  0.91066741  0.27127312  0.04689283    -0.02300
C2233       C  0.90961018  0.26204838  0.06759273     0.07700
C2234       C  0.92686650  0.24904576  0.07512881    -0.02500
Br2235     Br  0.92544215  0.23619046  0.10338035    -0.01000
Br2236     Br  0.96975465  0.22972238  0.07338331    -0.01100
Br2237     Br  0.88590259  0.28658842  0.03531976    -0.01000
Br2238     Br  0.93114269  0.28385887  0.00707865    -0.01000
C2239       C  0.06622329  0.23837807  0.04448333    -0.02100
C2240       C  0.04731507  0.25071106  0.04830914     0.07500
C2241       C  0.04693588  0.26502915  0.06584023    -0.02300
C2242       C  0.06577530  0.26849487  0.07817584    -0.02300
C2243       C  0.08528616  0.25773041  0.07307751     0.07700
C2244       C  0.08518967  0.24202171  0.05671554    -0.02500
Br2245     Br  0.11151396  0.22677516  0.04968955    -0.01000
Br2246     Br  0.06690535  0.21761158  0.02147287    -0.01100
Br2247     Br  0.06458815  0.28782655  0.10236071    -0.01000
Br2248     Br  0.02033228  0.27968525  0.07323807    -0.01000
C2249       C  0.66313089  0.86556798  0.95072708    -0.02100
C2250       C  0.64795215  0.88227317  0.95458196     0.07500
C2251       C  0.63044777  0.88513393  0.94008851    -0.02300
C2252       C  0.62753338  0.87078961  0.92284720    -0.02300
C2253       C  0.64136631  0.85274497  0.92043384     0.07700
C2254       C  0.65937301  0.85037708  0.93431617    -0.02500
Br2255     Br  0.67798015  0.82530272  0.93245466    -0.01000
Br2256     Br  0.68898260  0.86277676  0.96803074    -0.01100
Br2257     Br  0.60502163  0.87663147  0.90191648    -0.01000
Br2258     Br  0.61084307  0.90942087  0.94284132    -0.01000
C2259       C  0.65680527  0.97066281  0.93795280    -0.02100
C2260       C  0.64435361  0.97185438  0.95700839     0.07500
C2261       C  0.62777119  0.98769146  0.95844847    -0.02300
C2262       C  0.62498169  0.00308108  0.94199435    -0.02300
C2263       C  0.63728097  0.00169393  0.92318298     0.07700
C2264       C  0.65291957  0.98533002  0.92095513    -0.02500
Br2265     Br  0.66787318  0.98224326  0.89394964    -0.01000
Br2266     Br  0.67729798  0.94743852  0.93367625    -0.01100
Br2267     Br  0.60374031  0.02591808  0.94480263    -0.01000
Br2268     Br  0.60732462  0.98791029  0.98174027    -0.01000
C2269       C  0.64880196  0.88606488  0.07311947    -0.02100
C2270       C  0.65977183  0.88114401  0.05381469     0.07500
C2271       C  0.67162067  0.86164358  0.05243506    -0.02300
C2272       C  0.67107279  0.84651918  0.06951283    -0.02300
C2273       C  0.65886694  0.85086666  0.08805017     0.07700
C2274       C  0.64850946  0.87100747  0.09017821    -0.02500
Br2275     Br  0.63327796  0.87755492  0.11637408    -0.01000
Br2276     Br  0.63387703  0.91335411  0.07643738    -0.01100
Br2277     Br  0.68607528  0.81925518  0.06719546    -0.01000
Br2278     Br  0.68697755  0.85458517  0.02654494    -0.01000
C2279       C  0.64521176  0.98850871  0.05494349    -0.02100
C2280       C  0.65790177  0.96956859  0.05408037     0.07500
C2281       C  0.67128638  0.96407664  0.07178388    -0.02300
C2282       C  0.67037219  0.97639266  0.09076444    -0.02300
C2283       C  0.65648485  0.99445736  0.09191771     0.07700
C2284       C  0.64501907  0.00123380  0.07349564    -0.02500
Br2285     Br  0.62956700  0.02850432  0.07336069    -0.01000
Br2286     Br  0.62799780  0.99740651  0.03082131    -0.01100
Br2287     Br  0.68723808  0.96786842  0.11550280    -0.01000
Br2288     Br  0.68961988  0.93874742  0.07087506    -0.01000
C2289       C  0.96313690  0.58664193  0.93361239    -0.02100
C2290       C  0.95689160  0.57896895  0.95412218     0.07500
C2291       C  0.93642023  0.56913057  0.95678585    -0.02300
C2292       C  0.92264981  0.56624421  0.93900421    -0.02300
C2293       C  0.92932735  0.57291769  0.91835552     0.07700
C2294       C  0.94941581  0.58347936  0.91575751    -0.02500
Br2295     Br  0.95877217  0.59222219  0.88746739    -0.01000
Br2296     Br  0.99115560  0.59999596  0.92950303    -0.01100
Br2297     Br  0.89445911  0.55324548  0.94303499    -0.01000
Br2298     Br  0.92704372  0.55974731  0.98491905    -0.01000
C2299       C  0.93692346  0.59720423  0.04575866    -0.02100
C2300       C  0.95711002  0.58729946  0.04995644     0.07500
C2301       C  0.96126992  0.57815168  0.07032515    -0.02300
C2302       C  0.94458940  0.57668238  0.08553192    -0.02300
C2303       C  0.92360701  0.58377436  0.08016693     0.07700
C2304       C  0.91999724  0.59510791  0.06078379    -0.02500
Br2305     Br  0.89149590  0.60614587  0.05416168    -0.01000
Br2306     Br  0.93198449  0.61225658  0.01897055    -0.01100
Br2307     Br  0.95020802  0.56450993  0.11360596    -0.01000
Br2308     Br  0.98977380  0.56734474  0.07727194    -0.01000
C2309       C  0.04174703  0.55438823  0.93764615    -0.02100
C2310       C  0.04748135  0.56719125  0.95547101     0.07500
C2311       C  0.06819445  0.57689183  0.95639076    -0.02300
C2312       C  0.08305662  0.57377607  0.93959729    -0.02300
C2313       C  0.07755179  0.56039068  0.92222668     0.07700
C2314       C  0.05678172  0.55102960  0.92107965    -0.02500
Br2315     Br  0.04875841  0.53412727  0.89637572    -0.01000
Br2316     Br  0.01315021  0.54176288  0.93548106    -0.01100
Br2317     Br  0.11122741  0.58734008  0.94066581    -0.01000
Br2318     Br  0.07702962  0.59289492  0.98144365    -0.01000
C2319       C  0.05562160  0.55311896  0.05914687    -0.02100
C2320       C  0.05185977  0.57297505  0.04787903     0.07500
C2321       C  0.06720665  0.59005951  0.05037619    -0.02300
C2322       C  0.08659930  0.58654628  0.06194977    -0.02300
C2323       C  0.09067718  0.56641573  0.07186400     0.07700
C2324       C  0.07491728  0.54993886  0.07088280    -0.02500
Br2325     Br  0.07939770  0.52287408  0.08623552    -0.01000
Br2326     Br  0.03452752  0.52981712  0.05986350    -0.01100
Br2327     Br  0.10849813  0.60895891  0.06284381    -0.01000
Br2328     Br  0.06273214  0.61866885  0.03823367    -0.01000
C2329       C  0.43239519  0.37693246  0.84833272    -0.02100
C2330       C  0.45050563  0.37336744  0.83490438     0.07500
C2331       C  0.45184683  0.35379297  0.82330423    -0.02300
C2332       C  0.43597878  0.33751608  0.82615174    -0.02300
C2333       C  0.41855873  0.34072894  0.84040532     0.07700
C2334       C  0.41647938  0.36077868  0.85092007    -0.02500
Br2335     Br  0.39151785  0.36638664  0.86875086    -0.01000
Br2336     Br  0.42898844  0.40405235  0.86330459    -0.01100
Br2337     Br  0.43915245  0.31008780  0.81184673    -0.01000
Br2338     Br  0.47630576  0.34820967  0.80487046    -0.01000
C2339       C  0.53572000  0.34825926  0.85150461    -0.02100
C2340       C  0.54358776  0.36745442  0.84197543     0.07500
C2341       C  0.56558654  0.36900943  0.83606559    -0.02300
C2342       C  0.57998353  0.35195258  0.84110130    -0.02300
C2343       C  0.57211992  0.33285142  0.85096885     0.07700
C2344       C  0.54976090  0.33071837  0.85516579    -0.02500
Br2345     Br  0.53805468  0.30336622  0.86491678    -0.01000
Br2346     Br  0.50562972  0.34597073  0.85975716    -0.01100
Br2347     Br  0.61059583  0.35546591  0.83584965    -0.01000
Br2348     Br  0.57619185  0.39495348  0.82219134    -0.01000
C2349       C  0.43347712  0.46030027  0.82460599    -0.02100
C2350       C  0.45492088  0.46614278  0.82982469     0.07500
C2351       C  0.45938780  0.48714686  0.83715223    -0.02300
C2352       C  0.44231475  0.50170270  0.84092403    -0.02300
C2353       C  0.42056652  0.49493855  0.83831191     0.07700
C2354       C  0.41622397  0.47442971  0.82938497    -0.02500
Br2355     Br  0.38675604  0.46460322  0.82577997    -0.01000
Br2356     Br  0.42771502  0.43248433  0.81192713    -0.01100
Br2357     Br  0.44893095  0.53095437  0.84954069    -0.01000
Br2358     Br  0.48900423  0.49573647  0.84236246    -0.01000
C2359       C  0.56720891  0.45806153  0.85479666    -0.02100
C2360       C  0.55178139  0.46132965  0.83826344     0.07500
C2361       C  0.55340269  0.47997940  0.82507018    -0.02300
C2362       C  0.56885463  0.49617219  0.82980007    -0.02300
C2363       C  0.58293351  0.49369926  0.84757686     0.07700
C2364       C  0.58257452  0.47419732  0.85951013    -0.02500
Br2365     Br  0.60338594  0.46929191  0.88227703    -0.01000
Br2366     Br  0.56789005  0.43108229  0.87075970    -0.01100
Br2367     Br  0.56933617  0.52250400  0.81291299    -0.01000
Br2368     Br  0.53372473  0.48421072  0.80128377    -0.01000
C2369       C  0.43828291  0.33571667  0.14587283    -0.02100
C2370       C  0.41735375  0.33946862  0.15415937     0.07500
C2371       C  0.41378293  0.35731321  0.16767489    -0.02300
C2372       C  0.43088041  0.37170410  0.17236567    -0.02300
C2373       C  0.45148888  0.36868748  0.16298736     0.07700
C2374       C  0.45521463  0.35037611  0.15007058    -0.02500
Br2375     Br  0.48356634  0.34523212  0.13799282    -0.01000
Br2376     Br  0.44387974  0.31041257  0.12869369    -0.01100
Br2377     Br  0.42536829  0.39653885  0.19018481    -0.01000
Br2378     Br  0.38494385  0.36334215  0.17799341    -0.01000
C2379       C  0.41654496  0.47529118  0.14291943    -0.02100
C2380       C  0.41958625  0.49607344  0.15163759     0.07500
C2381       C  0.43573723  0.49927628  0.16739621    -0.02300
C2382       C  0.44985574  0.48221045  0.17308335    -0.02300
C2383       C  0.44833108  0.46214910  0.16247203     0.07700
C2384       C  0.43106369  0.45848011  0.14805068    -0.02500
Br2385     Br  0.42697141  0.43021528  0.13557094    -0.01000
Br2386     Br  0.39196738  0.46955879  0.12454784    -0.01100
Br2387     Br  0.47203086  0.48690620  0.19446903    -0.01000
Br2388     Br  0.43972557  0.52741861  0.18009476    -0.01000
C2389       C  0.56612788  0.37551008  0.15954231    -0.02100
C2390       C  0.54572401  0.37115426  0.16879869     0.07500
C2391       C  0.54080717  0.35001316  0.17602764    -0.02300
C2392       C  0.55552006  0.33301484  0.17234436    -0.02300
C2393       C  0.57535065  0.33721928  0.16197173     0.07700
C2394       C  0.58107315  0.35861563  0.15650283    -0.02500
Br2395     Br  0.60907696  0.36459784  0.14406966    -0.01000
Br2396     Br  0.57343281  0.40455685  0.15052811    -0.01100
Br2397     Br  0.54838081  0.30380244  0.18094025    -0.01000
Br2398     Br  0.51334095  0.34396214  0.18956775    -0.01000
C2399       C  0.55196904  0.50253672  0.15305261    -0.02100
C2400       C  0.57315050  0.49993995  0.16127034     0.07500
C2401       C  0.57795026  0.48179456  0.17438623    -0.02300
C2402       C  0.56197941  0.46580477  0.17820612    -0.02300
C2403       C  0.54150308  0.46745539  0.16816609     0.07700
C2404       C  0.53634559  0.48624220  0.15620315    -0.02500
Br2405     Br  0.50762651  0.48987644  0.14427390    -0.01000
Br2406     Br  0.54408870  0.52869339  0.13771530    -0.01100
Br2407     Br  0.56853169  0.44119570  0.19632933    -0.01000
Br2408     Br  0.60682693  0.47785480  0.18567816    -0.01000
C2409       C  0.85463353  0.37881942  0.44340379    -0.02100
C2410       C  0.83910670  0.37612550  0.45985380     0.07500
C2411       C  0.82729313  0.35652543  0.46118048    -0.02300
C2412       C  0.83206158  0.33932568  0.44717623    -0.02300
C2413       C  0.84851637  0.34161981  0.43163351     0.07700
C2414       C  0.85946797  0.36159159  0.42952419    -0.02500
Br2415     Br  0.88093583  0.36562430  0.40731696    -0.01000
Br2416     Br  0.86868693  0.40650276  0.43911452    -0.01100
Br2417     Br  0.81719209  0.31199023  0.45053264    -0.01000
Br2418     Br  0.80544234  0.35242849  0.48295947    -0.01000
C2419       C  0.85127129  0.37891589  0.57052036    -0.02100
C2420       C  0.83327652  0.37770638  0.55614920     0.07500
C2421       C  0.81708113  0.36178932  0.56004444    -0.02300
C2422       C  0.81980325  0.34641764  0.57679074    -0.02300
C2423       C  0.83829531  0.34712744  0.59005014     0.07700
C2424       C  0.85328490  0.36409020  0.58758814    -0.02500
Br2425     Br  0.87674327  0.36717134  0.60808821    -0.01000
Br2426     Br  0.87412853  0.40038270  0.56758182    -0.01100
Br2427     Br  0.79886976  0.32352818  0.58083919    -0.01000
Br2428     Br  0.79179816  0.35953751  0.54188453    -0.01000
C2429       C  0.85003113  0.49055691  0.46817034    -0.02100
C2430       C  0.83688974  0.47264378  0.46255855     0.07500
C2431       C  0.82753272  0.47178112  0.44187667    -0.02300
C2432       C  0.83235524  0.48802400  0.42656722    -0.02300
C2433       C  0.84599052  0.50545373  0.43208270     0.07700
C2434       C  0.85411352  0.50707748  0.45311056    -0.02500
Br2435     Br  0.87102284  0.53208056  0.46125291    -0.01000
Br2436     Br  0.86321579  0.49257130  0.49629759    -0.01100
Br2437     Br  0.82185199  0.48541469  0.39752333    -0.01000
Br2438     Br  0.80992326  0.44734118  0.43369749    -0.01000
C2439       C  0.83248860  0.46625579  0.57406296    -0.02100
C2440       C  0.82702841  0.47023291  0.55247574     0.07500
C2441       C  0.82144935  0.49139107  0.54584956    -0.02300
C2442       C  0.82455561  0.50890454  0.55991114    -0.02300
C2443       C  0.83273510  0.50512400  0.58074092     0.07700
C2444       C  0.83542339  0.48365230  0.58818325    -0.02500
Br2445     Br  0.84298459  0.47803132  0.61780165    -0.01000
Br2446     Br  0.83470783  0.43696103  0.58452112    -0.01100
Br2447     Br  0.81898765  0.53806038  0.55015341    -0.01000
Br2448     Br  0.80991593  0.49639191  0.51744987    -0.01000
C2449       C  0.46350926  0.74509665  0.44219180    -0.02100
C2450       C  0.45929498  0.75143796  0.46349378     0.07500
C2451       C  0.43867297  0.75943662  0.46894283    -0.02300
C2452       C  0.42275797  0.76234390  0.45296212    -0.02300
C2453       C  0.42738662  0.75726376  0.43141400     0.07700
C2454       C  0.44758999  0.74803399  0.42616245    -0.02500
Br2455     Br  0.45403828  0.74067650  0.39681661    -0.01000
Br2456     Br  0.49151130  0.73347490  0.43468070    -0.01100
Br2457     Br  0.39439877  0.77289969  0.46072090    -0.01000
Br2458     Br  0.43209328  0.76592713  0.49845120    -0.01000
C2459       C  0.57030694  0.74646900  0.45284579    -0.02100
C2460       C  0.55042685  0.75770045  0.45418422     0.07500
C2461       C  0.54493256  0.77308431  0.43815991    -0.02300
C2462       C  0.55965787  0.77802569  0.42166266    -0.02300
C2463       C  0.58036964  0.76833656  0.42151292     0.07700
C2464       C  0.58546034  0.75215528  0.43687303    -0.02500
Br2465     Br  0.61382136  0.73890392  0.43737235    -0.01000
Br2466     Br  0.57755960  0.72411880  0.47350791    -0.01100
Br2467     Br  0.55085665  0.79743472  0.39875262    -0.01000
Br2468     Br  0.51695454  0.78726523  0.43831016    -0.01000
C2469       C  0.44975048  0.73668416  0.55819801    -0.02100
C2470       C  0.46933880  0.74849683  0.55861471     0.07500
C2471       C  0.47404324  0.76182570  0.57632749    -0.02300
C2472       C  0.45883290  0.76424235  0.59288077    -0.02300
C2473       C  0.43827479  0.75428281  0.59137321     0.07700
C2474       C  0.43403547  0.73992473  0.57428923    -0.02500
Br2475     Br  0.40607219  0.72616216  0.57154141    -0.01000
Br2476     Br  0.44358714  0.71732990  0.53476366    -0.01100
Br2477     Br  0.46664093  0.78085270  0.61792467    -0.01000
Br2478     Br  0.50138590  0.77708023  0.57802036    -0.01000
C2479       C  0.58267613  0.76253737  0.53864082    -0.02100
C2480       C  0.56364593  0.75261649  0.54641160     0.07500
C2481       C  0.56312085  0.74450225  0.56763430    -0.02300
C2482       C  0.58083551  0.74809540  0.58157684    -0.02300
C2483       C  0.59939492  0.75915494  0.57408417     0.07700
C2484       C  0.60060309  0.76544232  0.55231065    -0.02500
Br2485     Br  0.62702956  0.77785101  0.54108607    -0.01000
Br2486     Br  0.58422242  0.77219966  0.50915764    -0.01100
Br2487     Br  0.57900818  0.73927932  0.61126414    -0.01000
Br2488     Br  0.53773158  0.72946296  0.57789824    -0.01000
C2489       C  0.15524992  0.36261571  0.43561215    -0.02100
C2490       C  0.16720159  0.36268820  0.45499764     0.07500
C2491       C  0.17867586  0.34381191  0.46131913    -0.02300
C2492       C  0.17684862  0.32468401  0.44914896    -0.02300
C2493       C  0.16401421  0.32448738  0.43042613     0.07700
C2494       C  0.15435231  0.34383935  0.42306566    -0.02500
Br2495     Br  0.13997828  0.34470903  0.39546646    -0.01000
Br2496     Br  0.13913354  0.38782557  0.42628294    -0.01100
Br2497     Br  0.19067270  0.29836194  0.45886919    -0.01000
Br2498     Br  0.19498947  0.34317241  0.48781510    -0.01000
C2499       C  0.15928538  0.49449349  0.43425699    -0.02100
C2500       C  0.16193509  0.48689048  0.41316929     0.07500
C2501       C  0.16912096  0.46556518  0.40971990    -0.02300
C2502       C  0.17252050  0.45152779  0.42730897    -0.02300
C2503       C  0.16786128  0.45853045  0.44823507     0.07700
C2504       C  0.16247767  0.48035080  0.45177854    -0.02500
Br2505     Br  0.16054191  0.49101183  0.48063891    -0.01000
Br2506     Br  0.15050742  0.52404100  0.43907516    -0.01100
Br2507     Br  0.18396489  0.42290813  0.42289074    -0.01000
Br2508     Br  0.17327126  0.45533923  0.38087314    -0.01000
C2509       C  0.16493781  0.36577057  0.56300813    -0.02100
C2510       C  0.15472075  0.36559856  0.54268165     0.07500
C2511       C  0.14200483  0.34750791  0.53673237    -0.02300
C2512       C  0.13922601  0.33010082  0.55111679    -0.02300
C2513       C  0.14886835  0.33064916  0.57157986     0.07700
C2514       C  0.16195342  0.34833255  0.57742850    -0.02500
Br2515     Br  0.17453609  0.34928889  0.60579462    -0.01000
Br2516     Br  0.18146406  0.39058869  0.57203884    -0.01100
Br2517     Br  0.12211693  0.30529421  0.54282936    -0.01000
Br2518     Br  0.12842766  0.34604392  0.50876429    -0.01000
C2519       C  0.16705274  0.46744670  0.55759038    -0.02100
C2520       C  0.15319186  0.46417798  0.53965838     0.07500
C2521       C  0.13530686  0.47843815  0.53652219    -0.02300
C2522       C  0.13118656  0.49502637  0.55127314    -0.02300
C2523       C  0.14402799  0.49705921  0.56977928     0.07700
C2524       C  0.16221129  0.48360647  0.57273058    -0.02500
Br2525     Br  0.17961911  0.48631566  0.59839530    -0.01000
Br2526     Br  0.19195998  0.44919290  0.56283023    -0.01100
Br2527     Br  0.10802033  0.51553283  0.54595316    -0.01000
Br2528     Br  0.11575728  0.47595071  0.51227953    -0.01000
C2529       C  0.46107115  0.06108650  0.43362727    -0.02100
C2530       C  0.45516817  0.07098970  0.45309646     0.07500
C2531       C  0.43355026  0.07768111  0.45627468    -0.02300
C2532       C  0.41771893  0.07340454  0.44051193    -0.02300
C2533       C  0.42358497  0.06305351  0.42130970     0.07700
C2534       C  0.44535197  0.05736027  0.41769289    -0.02500
Br2535     Br  0.45351371  0.04408126  0.39097173    -0.01000
Br2536     Br  0.49074371  0.05253031  0.42871897    -0.01100
Br2537     Br  0.38775455  0.08059783  0.44563257    -0.01000
Br2538     Br  0.42530490  0.09144600  0.48271935    -0.01000
C2539       C  0.45822030  0.08045845  0.56796116    -0.02100
C2540       C  0.45508486  0.06974569  0.54825983     0.07500
C2541       C  0.43711232  0.05591237  0.54560799    -0.02300
C2542       C  0.42263763  0.05240568  0.56268220    -0.02300
C2543       C  0.42644931  0.06209537  0.58281377     0.07700
C2544       C  0.44398408  0.07656801  0.58523138    -0.14500
Br2545     Br  0.44949122  0.09001087  0.61257143    -0.01000
Br2546     Br  0.48303353  0.09910466  0.57198116    -0.01100
Br2547     Br  0.39703834  0.03500514  0.55798514    -0.01000
Br2548     Br  0.43211363  0.04180327  0.51845302    -0.01000
C2549       C  0.58418607  0.06502061  0.44345863    -0.02100
C2550       C  0.58045526  0.07392797  0.42294077     0.07500
C2551       C  0.56170909  0.08633556  0.41895539    -0.02300
C2552       C  0.54607048  0.08885700  0.43520018    -0.02300
C2553       C  0.54922758  0.07883385  0.45540846     0.07700
C2554       C  0.56873184  0.06767161  0.45973114    -0.02500
Br2555     Br  0.57455636  0.05633212  0.48814938    -0.01000
Br2556     Br  0.61030071  0.04869745  0.44910883    -0.01100
Br2557     Br  0.51988203  0.10489577  0.42921887    -0.01000
Br2558     Br  0.55696464  0.09873002  0.39082529    -0.01000
C2559       C  0.58407538  0.08836455  0.56010067    -0.02100
C2560       C  0.58271254  0.07345945  0.57725089     0.07500
C2561       C  0.56335200  0.06195405  0.58083831    -0.02300
C2562       C  0.54602395  0.06390637  0.56626382    -0.02300
C2563       C  0.54794148  0.07758475  0.54809417     0.07700
C2564       C  0.56671102  0.09045750  0.54550007    -0.02500
Br2565     Br  0.56963006  0.10953593  0.52099244    -0.01000
Br2566     Br  0.61031120  0.10485412  0.55586816    -0.01100
Br2567     Br  0.51966302  0.04776974  0.57133246    -0.01000
Br2568     Br  0.56071480  0.04343904  0.60579951    -0.01000
loop_ 
_geom_bond_atom_site_label_1 
_geom_bond_atom_site_label_2 
_geom_bond_distance 
_geom_bond_site_symmetry_2 
_ccdc_geom_bond_type 
O1           Cu9   2.019       .  S
O1           C11   1.279       .  A
O2           Cu9   2.022       .  S
O2           C12   1.279       .  A
O3           Cu9   2.015       .  S
O3           C13   1.278       .  A
O4           Cu9   2.020       .  S
O4           C14   1.278       .  A
O5          Cu10   1.994       .  S
O5           C14   1.276       .  A
O6          Cu10   1.997       .  S
O6           C13   1.276       .  A
O7          Cu10   2.001       .  S
O7           C12   1.277       .  A
O8          Cu10   1.998       .  S
O8           C11   1.277       .  A
Cu9         Cu10   2.375       .  S
C11        C2563   1.479       .  S
C12        C2530   1.477       .  S
C13        C2540   1.477       .  S
C14        C2553   1.476       .  S
O15         Cu23   1.995       .  S
O15          C25   1.276       .  A
O16         Cu23   2.011       .  S
O16          C26   1.278       .  A
O17         Cu23   1.996       .  S
O17          C27   1.276       .  A
O18         Cu23   1.988       .  S
O18          C28   1.274       .  A
O19         Cu24   2.030       .  S
O19          C28   1.280       .  A
O20         Cu24   2.025       .  S
O20          C27   1.280       .  A
O21         Cu24   2.016       .  S
O21          C26   1.277       .  A
O22         Cu24   2.023       .  S
O22          C25   1.279       .  A
Cu23        Cu24   2.368       .  S
C25        C2510   1.483       .  S
C26        C2503   1.474       .  S
C27        C2490   1.485       .  S
C28        C2520   1.495       .  S
O29         Cu37   1.985       .  S
O29          C39   1.275       .  A
O30         Cu37   1.987       .  S
O30          C40   1.275       .  A
O31         Cu37   2.013       .  S
O31          C41   1.278       .  A
O32         Cu37   2.012       .  S
O32          C42   1.278       .  A
O33         Cu38   2.017       .  S
O33          C42   1.278       .  A
O34         Cu38   2.023       .  S
O34          C41   1.278       .  A
O35         Cu38   2.027       .  S
O35          C40   1.280       .  A
O36         Cu38   2.023       .  S
O36          C39   1.280       .  A
Cu37        Cu38   2.374       .  S
C39        C2460   1.480       .  S
C40        C2470   1.480       .  S
C41        C2480   1.480       .  S
C42        C2450   1.478       .  S
O43         Cu51   2.007       .  S
O43          C53   1.275       .  A
O44         Cu51   2.026       .  S
O44          C54   1.279       .  A
O45         Cu51   2.046       .  S
O45          C55   1.282       .  A
O46         Cu51   2.036       .  S
O46          C56   1.282       .  A
O47         Cu52   1.977       .  S
O47          C56   1.273       .  A
O48         Cu52   1.970       .  S
O48          C55   1.270       .  A
O49         Cu52   2.003       .  S
O49          C54   1.277       .  A
O50         Cu52   2.022       .  S
O50          C53   1.280       .  A
Cu51        Cu52   2.366       .  S
C53        C2440   1.476       .  S
C54        C2410   1.487       .  S
C55        C2420   1.498       .  S
C56        C2430   1.481       .  S
O57         Cu65   2.001       .  S
O57          C67   1.277       .  A
O58         Cu65   2.000       .  S
O58          C68   1.277       .  A
O59         Cu65   1.995       .  S
O59          C69   1.276       .  A
O60         Cu65   1.998       .  S
O60          C70   1.276       .  A
O61         Cu66   2.022       .  S
O61          C70   1.279       .  A
O62         Cu66   2.023       .  S
O62          C69   1.279       .  A
O63         Cu66   2.024       .  S
O63          C68   1.280       .  A
O64         Cu66   2.032       .  S
O64          C67   1.280       .  A
Cu65        Cu66   2.374       .  S
C67        C2403   1.483       .  S
C68        C2373   1.482       .  S
C69        C2383   1.480       .  S
C70        C2390   1.476       .  S
O71         Cu79   2.019       .  S
O71          C81   1.278       .  A
O72         Cu79   2.024       .  S
O72          C82   1.278       .  A
O73         Cu79   2.036       .  S
O73          C83   1.281       .  A
O74         Cu79   2.034       .  S
O74          C84   1.281       .  A
O75         Cu80   1.999       .  S
O75          C84   1.276       .  A
O76         Cu80   1.996       .  S
O76          C83   1.276       .  A
O77         Cu80   2.000       .  S
O77          C82   1.276       .  A
O78         Cu80   1.998       .  S
O78          C81   1.276       .  A
Cu79        Cu80   2.372       .  S
C81        C2340   1.474       .  S
C82        C2350   1.474       .  S
C83        C2360   1.489       .  S
C84        C2330   1.490       .  S
O85         Cu93   1.993   1_455  S
O85          C95   1.274       .  A
O86         Cu93   1.999   1_556  S
O86          C96   1.277       .  A
O87         Cu93   1.998   1_456  S
O87          C97   1.276       .  A
O88         Cu93   2.006       .  S
O88          C98   1.278       .  A
O89         Cu94   2.010   1_655  S
O89          C98   1.276       .  A
O90         Cu94   2.007   1_556  S
O90          C97   1.277       .  A
O91         Cu94   2.023   1_656  S
O91          C96   1.279       .  A
O92         Cu94   2.023       .  S
O92          C95   1.278       .  A
Cu93        Cu94   2.367   1_655  S
C95        C2320   1.506       .  S
C96        C2290   1.481       .  S
C97        C2310   1.476       .  S
C98        C2300   1.473       .  S
O99        Cu107   2.019   1_556  S
O99         C109   1.278       .  A
O100       Cu107   2.011       .  S
O100        C110   1.277       .  A
O101       Cu107   2.033       .  S
O101        C111   1.281       .  A
O102       Cu107   2.022   1_556  S
O102        C112   1.280       .  A
O103       Cu108   1.995   1_556  S
O103        C112   1.275       .  A
O104       Cu108   1.994       .  S
O104        C111   1.276       .  A
O105       Cu108   2.019       .  S
O105        C110   1.280       .  A
O106       Cu108   2.011   1_556  S
O106        C109   1.278       .  A
Cu107      Cu108   2.367       .  S
C109       C2250   1.492       .  S
C110       C2280   1.484       .  S
C111       C2270   1.485       .  S
C112       C2260   1.487       .  S
O113       Cu121   2.025       .  S
O113        C123   1.279       .  A
O114       Cu121   2.023   1_456  S
O114        C124   1.279       .  A
O115       Cu121   2.032   1_455  S
O115        C125   1.280       .  A
O116       Cu121   2.025   1_556  S
O116        C126   1.279       .  A
O117       Cu122   1.995   1_656  S
O117        C126   1.276       .  A
O118       Cu122   2.001       .  S
O118        C125   1.277       .  A
O119       Cu122   1.997   1_556  S
O119        C124   1.277       .  A
O120       Cu122   2.003   1_655  S
O120        C123   1.277       .  A
Cu121      Cu122   2.373   1_655  S
C123       C2230   1.482       .  S
C124       C2223   1.478       .  S
C125       C2240   1.488       .  S
C126       C2210   1.479       .  S
O127       Cu135   2.028   1_554  S
O127        C137   1.280       .  A
O128       Cu135   2.022       .  S
O128        C138   1.279       .  A
O129       Cu135   2.026   1_554  S
O129        C139   1.279       .  A
O130       Cu135   2.014       .  S
O130        C140   1.276       .  A
O131       Cu136   2.020       .  S
O131        C140   1.279       .  A
O132       Cu136   2.008   1_554  S
O132        C139   1.277       .  A
O133       Cu136   1.990       .  S
O133        C138   1.276       .  A
O134       Cu136   1.998   1_554  S
O134        C137   1.275       .  A
Cu135      Cu136   2.369       .  S
C137       C2200   1.499       .  S
C138       C2170   1.483       .  S
C139       C2180   1.479       .  S
C140       C2193   1.478       .  S
O141       Cu149   1.996       .  S
O141        C151   1.276       .  A
O142       Cu149   1.999   1_655  S
O142        C152   1.276       .  A
O143       Cu149   2.008   1_655  S
O143        C153   1.278       .  A
O144       Cu149   2.005       .  S
O144        C154   1.278       .  A
O145       Cu150   2.010       .  S
O145        C154   1.277       .  A
O146       Cu150   2.018   1_655  S
O146        C153   1.278       .  A
O147       Cu150   2.017   1_655  S
O147        C152   1.279       .  A
O148       Cu150   2.021       .  S
O148        C151   1.279       .  A
Cu149      Cu150   2.373       .  S
C151       C2163   1.475       .  S
C152       C2130   1.480       .  S
C153       C2140   1.488       .  S
C154       C2150   1.478       .  S
O155       Cu163   2.016       .  S
O155        C165   1.278       .  A
O156       Cu163   2.005   1_455  S
O156        C166   1.276       .  A
O157       Cu163   2.025       .  S
O157        C167   1.280       .  A
O158       Cu163   2.028   1_455  S
O158        C168   1.280       .  A
O159       Cu164   1.986       .  S
O159        C168   1.272       .  A
O160       Cu164   1.982   1_655  S
O160        C167   1.274       .  A
O161       Cu164   2.006       .  S
O161        C166   1.278       .  A
O162       Cu164   1.997   1_655  S
O162        C165   1.276       .  A
Cu163      Cu164   2.367   1_655  S
C165       C2113   1.476       .  S
C166       C2103   1.476       .  S
C167       C2090   1.473       .  S
C168       C2120   1.504       .  S
N169        N170   1.323       .  A
N169        C173   1.342       .  A
N169       Cu177   2.069       .  S
N170        C171   1.349       .  A
N170       Cu176   2.100       .  S
C171        C172   1.391       .  A
C171        H174   1.083       .  S
C172       C2070   1.491       .  S
C172        C173   1.383       .  A
C173        H175   1.081       .  S
Cu176       N179   2.100       .  S
Cu177       N187   2.067       .  S
Cu178       N180   2.069       .  S
Cu178       N186   2.068       .  S
N179        N180   1.324       .  A
N179        C183   1.353       .  A
N180        C181   1.341       .  A
C181        C182   1.379       .  A
C181        H184   1.083       .  S
C182       C2483   1.484       .  S
C182        C183   1.390       .  A
C183        H185   1.079       .  S
N186        N187   1.319       .  A
N186        C190   1.344       .  A
N187        C188   1.346       .  A
C188        C189   1.385       .  A
C188        H191   1.081       .  S
C189       C2080   1.481       .  S
C189        C190   1.384       .  A
C190        H192   1.083       .  S
N193        N194   1.324       .  A
N193        C197   1.346       .  A
N193       Cu201   2.083       .  S
N194        C195   1.343       .  A
N194       Cu200   2.077       .  S
C195        C196   1.383       .  A
C195        H198   1.082       .  S
C196       C2063   1.484       .  S
C196        C197   1.385       .  A
C197        H199   1.083       .  S
Cu200       N203   2.076       .  S
Cu201       N211   2.082       .  S
Cu202       N204   2.062       .  S
Cu202       N210   2.062       .  S
N203        N204   1.321       .  A
N203        C207   1.348       .  A
N204        C205   1.341       .  A
C205        C206   1.379       .  A
C205        H208   1.084       .  S
C206       C2560   1.474       .  S
C206        C207   1.385       .  A
C207        H209   1.082       .  S
N210        N211   1.321       .  A
N210        C214   1.342   1_545  A
N211        C212   1.347   1_545  A
C212        C213   1.388       .  A
C212        H215   1.082       .  S
C213       C2083   1.483       .  S
C213        C214   1.381       .  A
C214        H216   1.084       .  S
N217        N218   1.323       .  A
N217        C221   1.344       .  A
N217       Cu225   2.089       .  S
N218        C219   1.346       .  A
N218       Cu224   2.089       .  S
C219        C220   1.390       .  A
C219        H222   1.082       .  S
C220       C2040   1.500       .  S
C220        C221   1.389       .  A
C221        H223   1.083       .  S
Cu224       N227   2.088       .  S
Cu225       N235   2.089       .  S
Cu226       N228   2.053       .  S
Cu226       N234   2.054       .  S
N227        N228   1.321       .  A
N227        C231   1.351       .  A
N228        C229   1.339       .  A
C229        C230   1.378       .  A
C229        H232   1.083       .  S
C230       C2443   1.479       .  S
C230        C231   1.389       .  A
C231        H233   1.081       .  S
N234        N235   1.321       .  A
N234        C238   1.340       .  A
N235        C236   1.350       .  A
C236        C237   1.390       .  A
C236        H239   1.081       .  S
C237       C2050   1.481       .  S
C237        C238   1.379       .  A
C238        H240   1.083       .  S
N241        N242   1.322       .  A
N241        C245   1.343       .  A
N241       Cu249   2.088       .  S
N242        C243   1.345       .  A
N242       Cu248   2.071       .  S
C243        C244   1.387       .  A
C243        H246   1.081       .  S
C244       C2033   1.494       .  S
C244        C245   1.390       .  A
C245        H247   1.082       .  S
Cu248       N251   2.071       .  S
Cu249       N259   2.088       .  S
Cu250       N252   2.062       .  S
Cu250       N258   2.062       .  S
N251        N252   1.322       .  A
N251        C255   1.347       .  A
N252        C253   1.340       .  A
C253        C254   1.380       .  A
C253        H256   1.083       .  S
C254       C2523   1.475       .  S
C254        C255   1.384       .  A
C255        H257   1.080       .  S
N258        N259   1.321       .  A
N258        C262   1.342       .  A
N259        C260   1.349       .  A
C260        C261   1.389       .  A
C260        H263   1.081       .  S
C261       C2053   1.486       .  S
C261        C262   1.382       .  A
C262        H264   1.083       .  S
N265        N266   1.323       .  A
N265        C269   1.345       .  A
N265       Cu273   2.090       .  S
N266        C267   1.346       .  A
N266       Cu272   2.084       .  S
C267        C268   1.388       .  A
C267        H270   1.081       .  S
C268       C2010   1.496       .  S
C268        C269   1.390       .  A
C269        H271   1.083       .  S
Cu272       N275   2.083       .  S
Cu273       N283   2.090       .  S
Cu274       N276   2.070       .  S
Cu274       N282   2.069       .  S
N275        N276   1.321       .  A
N275        C279   1.349       .  A
N276        C277   1.343       .  A
C277        C278   1.384       .  A
C277        H280   1.082       .  S
C278       C2363   1.487       .  S
C278        C279   1.388       .  A
C279        H281   1.082       .  S
N282        N283   1.322       .  A
N282        C286   1.343       .  A
N283        C284   1.350       .  A
C284        C285   1.389       .  A
C284        H287   1.082       .  S
C285       C2023   1.487       .  S
C285        C286   1.382       .  A
C286        H288   1.084       .  S
N289        N290   1.323       .  A
N289        C293   1.345       .  A
N289       Cu297   2.081       .  S
N290        C291   1.346       .  A
N290       Cu296   2.090       .  S
C291        C292   1.389       .  A
C291        H294   1.083       .  S
C292       C2000   1.495       .  S
C292        C293   1.387       .  A
C293        H295   1.083       .  S
Cu296       N299   2.090       .  S
Cu297       N307   2.081       .  S
Cu298       N300   2.071       .  S
Cu298       N306   2.071       .  S
N299        N300   1.322       .  A
N299        C303   1.351       .  A
N300        C301   1.342       .  A
C301        C302   1.382       .  A
C301        H304   1.083       .  S
C302       C2400   1.486       .  S
C302        C303   1.389       .  A
C303        H305   1.082       .  S
N306        N307   1.322       .  A
N306        C310   1.344       .  A
N307        C308   1.349       .  A
C308        C309   1.385       .  A
C308        H311   1.082       .  S
C309       C2020   1.480       .  S
C309        C310   1.382       .  A
C310        H312   1.084       .  S
N313        N314   1.321       .  A
N313        C317   1.347       .  A
N313       Cu321   2.093       .  S
N314        C315   1.343       .  A
N314       Cu320   2.077       .  S
C315        C316   1.389       .  A
C315        H318   1.080       .  S
C316       C1980   1.503       .  S
C316        C317   1.394       .  A
C317        H319   1.081       .  S
Cu320       N323   2.078       .  S
Cu321       N331   2.094       .  S
Cu322       N324   2.063       .  S
Cu322       N330   2.064       .  S
N323        N324   1.321       .  A
N323        C327   1.349       .  A
N324        C325   1.341       .  A
C325        C326   1.380       .  A
C325        H328   1.084       .  S
C326       C2433   1.476       .  S
C326        C327   1.385       .  A
C327        H329   1.081       .  S
N330        N331   1.322       .  A
N330        C334   1.343       .  A
N331        C332   1.349       .  A
C332        C333   1.388       .  A
C332        H335   1.081       .  S
C333       C1990   1.484       .  S
C333        C334   1.381       .  A
C334        H336   1.084       .  S
N337        N338   1.323       .  A
N337        C341   1.346       .  A
N337       Cu345   2.091       .  S
N338        C339   1.346       .  A
N338       Cu344   2.080       .  S
C339        C340   1.387       .  A
C339        H342   1.082       .  S
C340       C1970   1.493       .  S
C340        C341   1.388       .  A
C341        H343   1.084       .  S
Cu344       N347   2.078       .  S
Cu345       N355   2.091       .  S
Cu346       N348   2.066       .  S
Cu346       N354   2.066       .  S
N347        N348   1.322       .  A
N347        C351   1.347       .  A
N348        C349   1.343       .  A
C349        C350   1.380       .  A
C349        H352   1.083       .  S
C350       C2500   1.474       .  S
C350        C351   1.384       .  A
C351        H353   1.082       .  S
N354        N355   1.323       .  A
N354        C358   1.342       .  A
N355        C356   1.350       .  A
C356        C357   1.387       .  A
C356        H359   1.081       .  S
C357       C1993   1.478       .  S
C357        C358   1.379       .  A
C358        H360   1.084       .  S
N361        N362   1.321       .  A
N361        C365   1.345       .  A
N361       Cu369   2.079       .  S
N362        C363   1.341       .  A
N362       Cu368   2.061       .  S
C363        C364   1.383       .  A
C363        H366   1.083       .  S
C364       C1950   1.487       .  S
C364        C365   1.388       .  A
C365        H367   1.083       .  S
Cu368       N371   2.061       .  S
Cu369       N379   2.079       .  S
Cu370       N372   2.070       .  S
Cu370       N378   2.071       .  S
N371        N372   1.320       .  A
N371        C375   1.344       .  A
N372        C373   1.343       .  A
C373        C374   1.386       .  A
C373        H376   1.080       .  S
C374       C2463   1.482       .  S
C374        C375   1.384       .  A
C375        H377   1.079       .  S
N378        N379   1.324       .  A
N378        C382   1.343       .  A
N379        C380   1.347       .  A
C380        C381   1.382       .  A
C380        H383   1.082       .  S
C381       C1960   1.472       .  S
C381        C382   1.379       .  A
C382        H384   1.082       .  S
N385        N386   1.324       .  A
N385        C389   1.346       .  A
N385       Cu393   2.076       .  S
N386        C387   1.342       .  A
N386       Cu392   2.070       .  S
C387        C388   1.378       .  A
C387        H390   1.084       .  S
C388       C1943   1.469       .  S
C388        C389   1.381       .  A
C389        H391   1.083       .  S
Cu392       N395   2.069       .  S
Cu393       N403   2.076       .  S
Cu394       N396   2.062       .  S
Cu394       N402   2.062       .  S
N395        N396   1.321       .  A
N395        C399   1.346       .  A
N396        C397   1.342       .  A
C397        C398   1.380       .  A
C397        H400   1.085       .  S
C398       C2550   1.471       .  S
C398        C399   1.383       .  A
C399        H401   1.082       .  S
N402        N403   1.322       .  A
N402        C406   1.341   1_545  A
N403        C404   1.347   1_545  A
C404        C405   1.385       .  A
C404        H407   1.082       .  S
C405       C1963   1.477       .  S
C405        C406   1.380       .  A
C406        H408   1.083       .  S
N409        N410   1.321       .  A
N409        C413   1.341       .  A
N409       Cu417   2.066       .  S
N410        C411   1.346       .  A
N410       Cu416   2.096       .  S
C411        C412   1.395       .  A
C411        H414   1.081       .  S
C412       C1920   1.501       .  S
C412        C413   1.387       .  A
C413        H415   1.083       .  S
Cu416       N419   2.096       .  S
Cu417       N427   2.066       .  S
Cu418       N420   2.053       .  S
Cu418       N426   2.052       .  S
N419        N420   1.322       .  A
N419        C423   1.353       .  A
N420        C421   1.337       .  A
C421        C422   1.378       .  A
C421        H424   1.083       .  S
C422       C2423   1.481       .  S
C422        C423   1.390       .  A
C423        H425   1.081       .  S
N426        N427   1.319       .  A
N426        C430   1.340       .  A
N427        C428   1.346       .  A
C428        C429   1.384       .  A
C428        H431   1.083       .  S
C429       C1930   1.473       .  S
C429        C430   1.380       .  A
C430        H432   1.084       .  S
N433        N434   1.322       .  A
N433        C437   1.343       .  A
N433       Cu441   2.072       .  S
N434        C435   1.344       .  A
N434       Cu440   2.087       .  S
C435        C436   1.390       .  A
C435        H438   1.080       .  S
C436       C1910   1.495       .  S
C436        C437   1.387       .  A
C437        H439   1.081       .  S
Cu440       N443   2.087       .  S
Cu441       N451   2.072       .  S
Cu442       N444   2.043       .  S
Cu442       N450   2.043       .  S
N443        N444   1.321       .  A
N443        C447   1.350       .  A
N444        C445   1.338       .  A
C445        C446   1.375       .  A
C445        H448   1.084       .  S
C446       C2513   1.473       .  S
C446        C447   1.388       .  A
C447        H449   1.081       .  S
N450        N451   1.320       .  A
N450        C454   1.339       .  A
N451        C452   1.347       .  A
C452        C453   1.384       .  A
C452        H455   1.081       .  S
C453       C1933   1.468       .  S
C453        C454   1.376       .  A
C454        H456   1.084       .  S
N457        N458   1.322       .  A
N457        C461   1.343       .  A
N457       Cu465   2.071       .  S
N458        C459   1.344       .  A
N458       Cu464   2.081       .  S
C459        C460   1.388       .  A
C459        H462   1.082       .  S
C460       C1890   1.489       .  S
C460        C461   1.385       .  A
C461        H463   1.082       .  S
Cu464       N467   2.080       .  S
Cu465       N475   2.073       .  S
Cu466       N468   2.063       .  S
Cu466       N474   2.062       .  S
N467        N468   1.321       .  A
N467        C471   1.348       .  A
N468        C469   1.341       .  A
C469        C470   1.383       .  A
C469        H472   1.083       .  S
C470       C2473   1.485       .  S
C470        C471   1.389       .  A
C471        H473   1.079       .  S
N474        N475   1.321       .  A
N474        C478   1.341       .  A
N475        C476   1.347       .  A
C476        C477   1.387       .  A
C476        H479   1.082       .  S
C477       C1900   1.482       .  S
C477        C478   1.382       .  A
C478        H480   1.083       .  S
N481        N482   1.321       .  A
N481        C485   1.345       .  A
N481       Cu489   2.093       .  S
N482        C483   1.344       .  A
N482       Cu488   2.081       .  S
C483        C484   1.391       .  A
C483        H486   1.084       .  S
C484       C1880   1.507       .  S
C484        C485   1.394       .  A
C485        H487   1.087       .  S
Cu488       N491   2.082       .  S
Cu489       N499   2.094   1_545  S
Cu490       N492   2.056       .  S
Cu490       N498   2.057   1_545  S
N491        N492   1.320       .  A
N491        C495   1.349       .  A
N492        C493   1.341       .  A
C493        C494   1.382       .  A
C493        H496   1.082       .  S
C494       C2543   1.482       .  S
C494        C495   1.388       .  A
C495        H497   1.080       .  S
N498        N499   1.323       .  A
N498        C502   1.341       .  A
N499        C500   1.350       .  A
C500        C501   1.387       .  A
C500        H503   1.082       .  S
C501       C1903   1.475       .  S
C501        C502   1.377       .  A
C502        H504   1.083       .  S
N505        N506   1.324       .  A
N505        C509   1.349       .  A
N505       Cu513   2.100       .  S
N506        C507   1.345       .  A
N506       Cu512   2.081       .  S
C507        C508   1.386       .  A
C507        H510   1.082       .  S
C508       C1863   1.497       .  S
C508        C509   1.391       .  A
C509        H511   1.084       .  S
Cu512       N515   2.079       .  S
Cu513       N523   2.100       .  S
Cu514       N516   2.066       .  S
Cu514       N522   2.066       .  S
N515        N516   1.321       .  A
N515        C519   1.348       .  A
N516        C517   1.342       .  A
C517        C518   1.382       .  A
C517        H520   1.082       .  S
C518       C2343   1.481       .  S
C518        C519   1.386       .  A
C519        H521   1.082       .  S
N522        N523   1.323       .  A
N522        C526   1.343       .  A
N523        C524   1.351       .  A
C524        C525   1.388       .  A
C524        H527   1.081       .  S
C525       C1870   1.482       .  S
C525        C526   1.379       .  A
C526        H528   1.084       .  S
N529        N530   1.321       .  A
N529        C533   1.345       .  A
N529       Cu537   2.084       .  S
N530        C531   1.345       .  A
N530       Cu536   2.074       .  S
C531        C532   1.388       .  A
C531        H534   1.081       .  S
C532       C1850   1.495       .  S
C532        C533   1.390       .  A
C533        H535   1.082       .  S
Cu536       N539   2.075       .  S
Cu537       N547   2.085       .  S
Cu538       N540   2.074       .  S
Cu538       N546   2.074       .  S
N539        N540   1.323       .  A
N539        C543   1.347       .  A
N540        C541   1.344       .  A
C541        C542   1.381       .  A
C541        H544   1.083       .  S
C542       C2393   1.474       .  S
C542        C543   1.382       .  A
C543        H545   1.082       .  S
N546        N547   1.323       .  A
N546        C550   1.344       .  A
N547        C548   1.349       .  A
C548        C549   1.385       .  A
C548        H551   1.081       .  S
C549       C1873   1.479       .  S
C549        C550   1.381       .  A
C550        H552   1.084       .  S
N553        N554   1.322       .  A
N553        C557   1.344       .  A
N553       Cu561   2.080       .  S
N554        C555   1.344       .  A
N554       Cu560   2.083       .  S
C555        C556   1.390       .  A
C555        H558   1.081       .  S
C556       C1830   1.498       .  S
C556        C557   1.390       .  A
C557        H559   1.082       .  S
Cu560       N563   2.084       .  S
Cu561       N571   2.080       .  S
Cu562       N564   2.057       .  S
Cu562       N570   2.057       .  S
N563        N564   1.320       .  A
N563        C567   1.350       .  A
N564        C565   1.340       .  A
C565        C566   1.381       .  A
C565        H568   1.081       .  S
C566       C2353   1.484       .  S
C566        C567   1.389       .  A
C567        H569   1.081       .  S
N570        N571   1.321       .  A
N570        C574   1.340       .  A
N571        C572   1.348       .  A
C572        C573   1.386       .  A
C572        H575   1.082       .  S
C573       C1840   1.475       .  S
C573        C574   1.379       .  A
C574        H576   1.085       .  S
N577        N578   1.321       .  A
N577        C581   1.346       .  A
N577       Cu585   2.075       .  S
N578        C579   1.339       .  A
N578       Cu584   2.060       .  S
C579        C580   1.383       .  A
C579        H582   1.082       .  S
C580       C1823   1.484       .  S
C580        C581   1.388       .  A
C581        H583   1.083       .  S
Cu584       N587   2.060       .  S
Cu585       N595   2.077       .  S
Cu586       N588   2.073       .  S
Cu586       N594   2.074       .  S
N587        N588   1.320       .  A
N587        C591   1.345       .  A
N588        C589   1.344       .  A
C589        C590   1.386       .  A
C589        H592   1.082       .  S
C590       C2380   1.481       .  S
C590        C591   1.383       .  A
C591        H593   1.082       .  S
N594        N595   1.324       .  A
N594        C598   1.342       .  A
N595        C596   1.347       .  A
C596        C597   1.382       .  A
C596        H599   1.081       .  S
C597       C1843   1.471       .  S
C597        C598   1.379       .  A
C598        H600   1.083       .  S
N601        N602   1.325       .  A
N601        C605   1.345       .  A
N601       Cu609   2.078       .  S
N602        C603   1.345       .  A
N602       Cu608   2.078       .  S
C603        C604   1.380       .  A
C603        H606   1.086       .  S
C604       C1800   1.469       .  S
C604        C605   1.379       .  A
C605        H607   1.084       .  S
Cu608       N611   2.077       .  S
Cu609       N619   2.078       .  S
Cu610       N612   2.069       .  S
Cu610       N618   2.069       .  S
N611        N612   1.321       .  A
N611        C615   1.349       .  A
N612        C613   1.343       .  A
C613        C614   1.382       .  A
C613        H616   1.081       .  S
C614       C2453   1.480       .  S
C614        C615   1.386       .  A
C615        H617   1.079       .  S
N618        N619   1.322       .  A
N618        C622   1.342       .  A
N619        C620   1.348       .  A
C620        C621   1.386       .  A
C620        H623   1.082       .  S
C621       C1810   1.480       .  S
C621        C622   1.381       .  A
C622        H624   1.083       .  S
N625        N626   1.323       .  A
N625        C629   1.344       .  A
N625       Cu633   2.082       .  S
N626        C627   1.347       .  A
N626       Cu632   2.089       .  S
C627        C628   1.389       .  A
C627        H630   1.084       .  S
C628       C1790   1.494       .  S
C628        C629   1.386       .  A
C629        H631   1.083       .  S
Cu632       N635   2.088       .  S
Cu633       N643   2.081   1_545  S
Cu634       N636   2.064       .  S
Cu634       N642   2.063   1_545  S
N635        N636   1.323       .  A
N635        C639   1.349       .  A
N636        C637   1.343       .  A
C637        C638   1.379       .  A
C637        H640   1.085       .  S
C638       C2533   1.476       .  S
C638        C639   1.385       .  A
C639        H641   1.081       .  S
N642        N643   1.321       .  A
N642        C646   1.341       .  A
N643        C644   1.349       .  A
C644        C645   1.387       .  A
C644        H647   1.082       .  S
C645       C1813   1.479       .  S
C645        C646   1.380       .  A
C646        H648   1.084       .  S
N649        N650   1.324       .  A
N649        C653   1.346       .  A
N649       Cu657   2.090       .  S
N650        C651   1.348       .  A
N650       Cu656   2.088       .  S
C651        C652   1.388       .  A
C651        H654   1.080       .  S
C652       C1770   1.493       .  S
C652        C653   1.388       .  A
C653        H655   1.081       .  S
Cu656       N659   2.088       .  S
Cu657       N667   2.090       .  S
Cu658       N660   2.069       .  S
Cu658       N666   2.069       .  S
N659        N660   1.322       .  A
N659        C663   1.349       .  A
N660        C661   1.344       .  A
C661        C662   1.382       .  A
C661        H664   1.084       .  S
C662       C2413   1.485       .  S
C662        C663   1.388       .  A
C663        H665   1.081       .  S
N666        N667   1.322       .  A
N666        C670   1.344       .  A
N667        C668   1.349       .  A
C668        C669   1.388       .  A
C668        H671   1.082       .  S
C669       C1780   1.485       .  S
C669        C670   1.382       .  A
C670        H672   1.083       .  S
N673        N674   1.324       .  A
N673        C677   1.347       .  A
N673       Cu681   2.097       .  S
N674        C675   1.346       .  A
N674       Cu680   2.087       .  S
C675        C676   1.387       .  A
C675        H678   1.082       .  S
C676       C1760   1.496       .  S
C676        C677   1.390       .  A
C677        H679   1.082       .  S
Cu680       N683   2.085       .  S
Cu681       N691   2.096       .  S
Cu682       N684   2.062       .  S
Cu682       N690   2.063       .  S
N683        N684   1.321       .  A
N683        C687   1.351       .  A
N684        C685   1.340       .  A
C685        C686   1.381       .  A
C685        H688   1.082       .  S
C686       C2493   1.481       .  S
C686        C687   1.389       .  A
C687        H689   1.081       .  S
N690        N691   1.322       .  A
N690        C694   1.343       .  A
N691        C692   1.351       .  A
C692        C693   1.389       .  A
C692        H695   1.082       .  S
C693       C1783   1.481       .  S
C693        C694   1.379       .  A
C694        H696   1.083       .  S
N697        N698   1.324       .  A
N697        C701   1.346       .  A
N697       Cu705   2.077       .  S
N698        C699   1.345       .  A
N698       Cu704   2.095       .  S
C699        C700   1.388       .  A
C699        H702   1.082       .  S
C700       C1740   1.491       .  S
C700        C701   1.386       .  A
C701        H703   1.083       .  S
Cu704       N707   2.093       .  S
Cu705       N715   2.076       .  S
Cu706       N708   2.052       .  S
Cu706       N714   2.052       .  S
N707        N708   1.320       .  A
N707        C711   1.351       .  A
N708        C709   1.341       .  A
C709        C710   1.380       .  A
C709        H712   1.082       .  S
C710       C2333   1.486       .  S
C710        C711   1.392       .  A
C711        H713   1.081       .  S
N714        N715   1.321       .  A
N714        C718   1.339       .  A
N715        C716   1.347       .  A
C716        C717   1.386       .  A
C716        H719   1.082       .  S
C717       C1750   1.475       .  S
C717        C718   1.378       .  A
C718        H720   1.084       .  S
N721        N722   1.323       .  A
N721        C725   1.346       .  A
N721       Cu729   2.072       .  S
N722        C723   1.344       .  A
N722       Cu728   2.090       .  S
C723        C724   1.389       .  A
C723        H726   1.082       .  S
C724       C1730   1.491       .  S
C724        C725   1.385       .  A
C725        H727   1.082       .  S
Cu728       N731   2.090       .  S
Cu729       N739   2.072       .  S
Cu730       N732   2.056       .  S
Cu730       N738   2.056       .  S
N731        N732   1.321       .  A
N731        C735   1.350       .  A
N732        C733   1.341       .  A
C733        C734   1.379       .  A
C733        H736   1.082       .  S
C734       C2370   1.481       .  S
C734        C735   1.389       .  A
C735        H737   1.082       .  S
N738        N739   1.322       .  A
N738        C742   1.342       .  A
N739        C740   1.345       .  A
C740        C741   1.381       .  A
C740        H743   1.083       .  S
C741       C1753   1.467       .  S
C741        C742   1.377       .  A
C742        H744   1.084       .  S
N745        N746   1.323       .  A
N745        C749   1.345       .  A
N745       Cu753   2.095       .  S
N746        C747   1.351       .  A
N746       Cu752   2.098       .  S
C747        C748   1.392       .  A
C747        H750   1.083       .  S
C748       C1710   1.503       .  S
C748        C749   1.390       .  A
C749        H751   1.082       .  S
Cu752       N755   2.099       .  S
Cu753       N763   2.094       .  S
Cu754       N756   2.077       .  S
Cu754       N762   2.077       .  S
N755        N756   1.323       .  A
N755        C759   1.351       .  A
N756        C757   1.344       .  A
C757        C758   1.383       .  A
C757        H760   1.083       .  S
C758       C2243   1.490       .  S
C758        C759   1.390       .  A
C759        H761   1.079       .  S
N762        N763   1.322       .  A
N762        C766   1.345       .  A
N763        C764   1.350       .  A
C764        C765   1.387       .  A
C764        H767   1.082       .  S
C765       C1720   1.485       .  S
C765        C766   1.383       .  A
C766        H768   1.083       .  S
N769        N770   1.324       .  A
N769        C773   1.346       .  A
N769       Cu777   2.090       .  S
N770        C771   1.344       .  A
N770       Cu776   2.074       .  S
C771        C772   1.383       .  A
C771        H774   1.081       .  S
C772       C1700   1.487       .  S
C772        C773   1.388       .  A
C773        H775   1.083       .  S
Cu776       N779   2.073       .  S
Cu777       N787   2.090       .  S
Cu778       N780   2.061       .  S
Cu778       N786   2.063       .  S
N779        N780   1.320       .  A
N779        C783   1.347       .  A
N780        C781   1.341       .  A
C781        C782   1.382       .  A
C781        H784   1.082       .  S
C782       C2323   1.482       .  S
C782        C783   1.387       .  A
C783        H785   1.080       .  S
N786        N787   1.321       .  A
N786        C790   1.342       .  A
N787        C788   1.351       .  A
C788        C789   1.389       .  A
C788        H791   1.082       .  S
C789       C1723   1.483       .  S
C789        C790   1.380       .  A
C790        H792   1.083       .  S
N793        N794   1.322       .  A
N793        C797   1.342       .  A
N793       Cu801   2.086       .  S
N794        C795   1.350       .  A
N794       Cu800   2.096       .  S
C795        C796   1.394       .  A
C795        H798   1.080       .  S
C796       C1680   1.504       .  S
C796        C797   1.389       .  A
C797        H799   1.082       .  S
Cu800       N803   2.095       .  S
Cu801       N811   2.086       .  S
Cu802       N804   2.061       .  S
Cu802       N810   2.061       .  S
N803        N804   1.322       .  A
N803        C807   1.349       .  A
N804        C805   1.342       .  A
C805        C806   1.382       .  A
C805        H808   1.080       .  S
C806       C2203   1.488   1_545  S
C806        C807   1.391       .  A
C807        H809   1.080       .  S
N810        N811   1.321       .  A
N810        C814   1.342       .  A
N811        C812   1.350       .  A
C812        C813   1.387       .  A
C812        H815   1.081       .  S
C813       C1690   1.480       .  S
C813        C814   1.380       .  A
C814        H816   1.083       .  S
N817        N818   1.321       .  A
N817        C821   1.344       .  A
N817       Cu825   2.093       .  S
N818        C819   1.345       .  A
N818       Cu824   2.075       .  S
C819        C820   1.389       .  A
C819        H822   1.080       .  S
C820       C1670   1.502       .  S
C820        C821   1.393       .  A
C821        H823   1.083       .  S
Cu824       N827   2.074       .  S
Cu825       N835   2.094       .  S
Cu826       N828   2.068       .  S
Cu826       N834   2.069       .  S
N827        N828   1.320       .  A
N827        C831   1.349       .  A
N828        C829   1.340       .  A
C829        C830   1.382       .  A
C829        H832   1.083       .  S
C830       C2283   1.480   1_545  S
C830        C831   1.387       .  A
C831        H833   1.081       .  S
N834        N835   1.322       .  A
N834        C838   1.342       .  A
N835        C836   1.351       .  A
C836        C837   1.388       .  A
C836        H839   1.081       .  S
C837       C1693   1.483       .  S
C837        C838   1.380       .  A
C838        H840   1.084       .  S
N841        N842   1.322       .  A
N841        C845   1.344       .  A
N841       Cu849   2.069       .  S
N842        C843   1.343       .  A
N842       Cu848   2.072       .  S
C843        C844   1.384       .  A
C843        H846   1.082       .  S
C844       C1650   1.481       .  S
C844        C845   1.384       .  A
C845        H847   1.082       .  S
Cu848       N851   2.072       .  S
Cu849       N859   2.069       .  S
Cu850       N852   2.074       .  S
Cu850       N858   2.074       .  S
N851        N852   1.321       .  A
N851        C855   1.346       .  A
N852        C853   1.344   1_545  A
C853        C854   1.382       .  A
C853        H856   1.084       .  S
C854       C2190   1.475       .  S
C854        C855   1.383   1_565  A
C855        H857   1.082       .  S
N858        N859   1.323       .  A
N858        C862   1.342       .  A
N859        C860   1.346       .  A
C860        C861   1.383       .  A
C860        H863   1.082       .  S
C861       C1663   1.475       .  S
C861        C862   1.381       .  A
C862        H864   1.083       .  S
N865        N866   1.322       .  A
N865        C869   1.341       .  A
N865       Cu873   2.077       .  S
N866        C867   1.345       .  A
N866       Cu872   2.071       .  S
C867        C868   1.387       .  A
C867        H870   1.082       .  S
C868       C1643   1.489       .  S
C868        C869   1.386       .  A
C869        H871   1.082       .  S
Cu872       N875   2.072       .  S
Cu873       N883   2.076       .  S
Cu874       N876   2.049       .  S
Cu874       N882   2.048       .  S
N875        N876   1.322       .  A
N875        C879   1.347       .  A
N876        C877   1.339       .  A
C877        C878   1.375       .  A
C877        H880   1.084   1_545  S
C878       C2263   1.466       .  S
C878        C879   1.382       .  A
C879        H881   1.082       .  S
N882        N883   1.319       .  A
N882        C886   1.339       .  A
N883        C884   1.348       .  A
C884        C885   1.387       .  A
C884        H887   1.082       .  S
C885       C1660   1.474       .  S
C885        C886   1.378       .  A
C886        H888   1.083       .  S
N889        N890   1.325       .  A
N889        C893   1.345       .  A
N889       Cu897   2.085       .  S
N890        C891   1.348       .  A
N890       Cu896   2.094       .  S
C891        C892   1.388       .  A
C891        H894   1.081       .  S
C892       C1620   1.492       .  S
C892        C893   1.386       .  A
C893        H895   1.083       .  S
Cu896       N899   2.092       .  S
Cu897       N907   2.084       .  S
Cu898       N900   2.054       .  S
Cu898       N906   2.054       .  S
N899        N900   1.321       .  A
N899        C903   1.350       .  A
N900        C901   1.341       .  A
C901        C902   1.378       .  A
C901        H904   1.084       .  S
C902       C2183   1.479       .  S
C902        C903   1.389       .  A
C903        H905   1.081       .  S
N906        N907   1.321       .  A
N906        C910   1.340       .  A
N907        C908   1.349       .  A
C908        C909   1.386       .  A
C908        H911   1.082       .  S
C909       C1630   1.474       .  S
C909        C910   1.377       .  A
C910        H912   1.083       .  S
N913        N914   1.321       .  A
N913        C917   1.339       .  A
N913       Cu921   2.062       .  S
N914        C915   1.348       .  A
N914       Cu920   2.098       .  S
C915        C916   1.396       .  A
C915        H918   1.079       .  S
C916       C1610   1.500       .  S
C916        C917   1.385       .  A
C917        H919   1.083       .  S
Cu920       N923   2.100       .  S
Cu921       N931   2.061       .  S
Cu922       N924   2.064       .  S
Cu922       N930   2.062       .  S
N923        N924   1.324       .  A
N923        C927   1.353       .  A
N924        C925   1.340       .  A
C925        C926   1.376       .  A
C925        H928   1.084       .  S
C926       C2273   1.477       .  S
C926        C927   1.388       .  A
C927        H929   1.081       .  S
N930        N931   1.318       .  A
N930        C934   1.342       .  A
N931        C932   1.346       .  A
C932        C933   1.386       .  A
C932        H935   1.081       .  S
C933       C1633   1.482       .  S
C933        C934   1.385       .  A
C934        H936   1.083       .  S
N937        N938   1.322       .  A
N937        C941   1.343       .  A
N937       Cu945   2.078       .  S
N938        C939   1.346       .  A
N938       Cu944   2.092       .  S
C939        C940   1.392       .  A
C939        H942   1.080       .  S
C940       C1590   1.499       .  S
C940        C941   1.388       .  A
C941        H943   1.081       .  S
Cu944       N947   2.093       .  S
Cu945       N955   2.078       .  S
Cu946       N948   2.061       .  S
Cu946       N954   2.061       .  S
N947        N948   1.322       .  A
N947        C951   1.352       .  A
N948        C949   1.339       .  A
C949        C950   1.378       .  A
C949        H952   1.084       .  S
C950       C2233   1.481       .  S
C950        C951   1.389       .  A
C951        H953   1.081       .  S
N954        N955   1.320       .  A
N954        C958   1.343       .  A
N955        C956   1.348       .  A
C956        C957   1.385       .  A
C956        H959   1.082       .  S
C957       C1603   1.476       .  S
C957        C958   1.380       .  A
C958        H960   1.083       .  S
N961        N962   1.323       .  A
N961        C965   1.347       .  A
N961       Cu969   2.095       .  S
N962        C963   1.341       .  A
N962       Cu968   2.060       .  S
C963        C964   1.381       .  A
C963        H966   1.084       .  S
C964       C1583   1.489       .  S
C964        C965   1.391       .  A
C965        H967   1.085       .  S
Cu968       N971   2.059       .  S
Cu969       N979   2.095       .  S
Cu970       N972   2.068       .  S
Cu970       N978   2.069       .  S
N971        N972   1.321       .  A
N971        C975   1.347       .  A
N972        C973   1.341       .  A
C973        C974   1.380       .  A
C973        H976   1.083       .  S
C974       C2303   1.471       .  S
C974        C975   1.381       .  A
C975        H977   1.082       .  S
N978        N979   1.323       .  A
N978        C982   1.343       .  A
N979        C980   1.350       .  A
C980        C981   1.387       .  A
C980        H983   1.082       .  S
C981       C1600   1.479       .  S
C981        C982   1.380       .  A
C982        H984   1.082       .  S
N985        N986   1.324       .  A
N985        C989   1.347       .  A
N985       Cu993   2.087       .  S
N986        C987   1.344       .  A
N986       Cu992   2.068       .  S
C987        C988   1.379       .  A
C987        H990   1.083       .  S
C988       C1560   1.473       .  S
C988        C989   1.382       .  A
C989        H991   1.083       .  S
Cu992       N995   2.067       .  S
Cu993      N1003   2.087       .  S
Cu994       N996   2.067       .  S
Cu994      N1002   2.067       .  S
N995        N996   1.321       .  A
N995        C999   1.345       .  A
N996        C997   1.343       .  A
C997        C998   1.383       .  A
C997       H1000   1.083       .  S
C998       C2110   1.477   1_545  S
C998        C999   1.383       .  A
C999       H1001   1.082       .  S
N1002      N1003   1.323       .  A
N1002      C1006   1.341       .  A
N1003      C1004   1.350       .  A
C1004      C1005   1.387       .  A
C1004      H1007   1.081       .  S
C1005      C1573   1.479       .  S
C1005      C1006   1.379       .  A
C1006      H1008   1.084       .  S
N1009      N1010   1.324       .  A
N1009      C1013   1.346       .  A
N1009     Cu1017   2.087       .  S
N1010      C1011   1.349       .  A
N1010     Cu1016   2.105       .  S
C1011      C1012   1.393       .  A
C1011      H1014   1.082       .  S
C1012      C1550   1.503       .  S
C1012      C1013   1.389       .  A
C1013      H1015   1.083       .  S
Cu1016     N1019   2.103       .  S
Cu1017     N1027   2.087       .  S
Cu1018     N1020   2.065       .  S
Cu1018     N1026   2.066       .  S
N1019      N1020   1.322       .  A
N1019      C1023   1.352       .  A
N1020      C1021   1.343       .  A
C1021      C1022   1.382       .  A
C1021      H1024   1.082       .  S
C1022      C2143   1.490   1_545  S
C1022      C1023   1.392       .  A
C1023      H1025   1.082       .  S
N1026      N1027   1.322       .  A
N1026      C1030   1.342       .  A
N1027      C1028   1.350       .  A
C1028      C1029   1.386       .  A
C1028      H1031   1.081       .  S
C1029      C1570   1.476       .  S
C1029      C1030   1.379       .  A
C1030      H1032   1.084       .  S
N1033      N1034   1.325       .  A
N1033      C1037   1.348       .  A
N1033     Cu1041   2.089       .  S
N1034      C1035   1.341       .  A
N1034     Cu1040   2.064       .  S
C1035      C1036   1.376       .  A
C1035      H1038   1.084       .  S
C1036      C1530   1.470       .  S
C1036      C1037   1.383       .  A
C1037      H1039   1.084       .  S
Cu1040     N1043   2.062       .  S
Cu1041     N1051   2.088       .  S
Cu1042     N1044   2.063       .  S
Cu1042     N1050   2.064       .  S
N1043      N1044   1.320       .  A
N1043      C1047   1.346       .  A
N1044      C1045   1.342       .  A
C1045      C1046   1.381       .  A
C1045      H1048   1.083       .  S
C1046      C2100   1.473       .  S
C1046      C1047   1.382       .  A
C1047      H1049   1.082       .  S
N1050      N1051   1.322       .  A
N1050      C1054   1.340       .  A
N1051      C1052   1.350       .  A
C1052      C1053   1.388       .  A
C1052      H1055   1.080       .  S
C1053      C1540   1.482       .  S
C1053      C1054   1.380       .  A
C1054      H1056   1.084       .  S
N1057      N1058   1.323       .  A
N1057      C1061   1.344       .  A
N1057     Cu1065   2.075       .  S
N1058      C1059   1.345       .  A
N1058     Cu1064   2.075       .  S
C1059      C1060   1.385       .  A
C1059      H1062   1.082       .  S
C1060      C1520   1.483       .  S
C1060      C1061   1.383       .  A
C1061      H1063   1.082       .  S
Cu1064     N1067   2.074       .  S
Cu1065     N1075   2.074       .  S
Cu1066     N1068   2.063       .  S
Cu1066     N1074   2.063       .  S
N1067      N1068   1.322       .  A
N1067      C1071   1.346       .  A
N1068      C1069   1.342       .  A
C1069      C1070   1.379       .  A
C1069      H1072   1.083       .  S
C1070      C2153   1.473       .  S
C1070      C1071   1.383       .  A
C1071      H1073   1.081       .  S
N1074      N1075   1.321       .  A
N1074      C1078   1.341       .  A
N1075      C1076   1.347       .  A
C1076      C1077   1.386       .  A
C1076      H1079   1.082       .  S
C1077      C1543   1.479       .  S
C1077      C1078   1.381       .  A
C1078      H1080   1.085       .  S
N1081      N1082   1.323       .  A
N1081      C1085   1.345       .  A
N1081     Cu1089   2.089       .  S
N1082      C1083   1.344       .  A
N1082     Cu1088   2.072       .  S
C1083      C1084   1.384       .  A
C1083      H1086   1.084       .  S
C1084      C1500   1.489       .  S
C1084      C1085   1.388       .  A
C1085      H1087   1.084       .  S
Cu1088     N1091   2.071       .  S
Cu1089     N1099   2.089       .  S
Cu1090     N1092   2.068       .  S
Cu1090     N1098   2.068       .  S
N1091      N1092   1.321       .  A
N1091      C1095   1.346       .  A
N1092      C1093   1.344       .  A
C1093      C1094   1.384       .  A
C1093      H1096   1.081       .  S
C1094      C2213   1.481       .  S
C1094      C1095   1.385       .  A
C1095      H1097   1.079       .  S
N1098      N1099   1.323       .  A
N1098      C1102   1.342       .  A
N1099      C1100   1.351       .  A
C1100      C1101   1.387       .  A
C1100      H1103   1.081       .  S
C1101      C1510   1.478       .  S
C1101      C1102   1.379       .  A
C1102      H1104   1.083       .  S
N1105      N1106   1.323       .  A
N1105      C1109   1.346       .  A
N1105     Cu1113   2.088       .  S
N1106      C1107   1.345       .  A
N1106     Cu1112   2.086       .  S
C1107      C1108   1.389       .  A
C1107      H1110   1.083       .  S
C1108      C1490   1.499       .  S
C1108      C1109   1.390       .  A
C1109      H1111   1.082       .  S
Cu1112     N1115   2.085       .  S
Cu1113     N1123   2.089       .  S
Cu1114     N1116   2.067       .  S
Cu1114     N1122   2.068       .  S
N1115      N1116   1.321       .  A
N1115      C1119   1.350       .  A
N1116      C1117   1.343       .  A
C1117      C1118   1.382       .  A
C1117      H1120   1.080       .  S
C1118      C2293   1.481       .  S
C1118      C1119   1.387       .  A
C1119      H1121   1.079       .  S
N1122      N1123   1.322       .  A
N1122      C1126   1.343       .  A
N1123      C1124   1.350       .  A
C1124      C1125   1.387       .  A
C1124      H1127   1.081       .  S
C1125      C1513   1.480       .  S
C1125      C1126   1.380       .  A
C1126      H1128   1.083       .  S
N1129      N1130   1.322       .  A
N1129      C1133   1.342       .  A
N1129     Cu1137   2.081       .  S
N1130      C1131   1.344       .  A
N1130     Cu1136   2.065       .  S
C1131      C1132   1.385       .  A
C1131      H1134   1.081       .  S
C1132      C1470   1.489       .  S
C1132      C1133   1.388       .  A
C1133      H1135   1.083       .  S
Cu1136     N1139   2.066       .  S
Cu1137     N1147   2.080       .  S
Cu1138     N1140   2.067       .  S
Cu1138     N1146   2.067       .  S
N1139      N1140   1.322       .  A
N1139      C1143   1.345       .  A
N1140      C1141   1.343       .  A
C1141      C1142   1.380       .  A
C1141      H1144   1.083       .  S
C1142      C2093   1.470       .  S
C1142      C1143   1.380       .  A
C1143      H1145   1.082       .  S
N1146      N1147   1.321       .  A
N1146      C1150   1.342       .  A
N1147      C1148   1.348       .  A
C1148      C1149   1.388       .  A
C1148      H1151   1.080       .  S
C1149      C1483   1.482       .  S
C1149      C1150   1.382       .  A
C1150      H1152   1.084       .  S
N1153      N1154   1.321       .  A
N1153      C1157   1.343       .  A
N1153     Cu1161   2.078       .  S
N1154      C1155   1.344       .  A
N1154     Cu1160   2.077       .  S
C1155      C1156   1.388       .  A
C1155      H1158   1.081       .  S
C1156      C1460   1.494       .  S
C1156      C1157   1.389       .  A
C1157      H1159   1.082       .  S
Cu1160     N1163   2.079       .  S
Cu1161     N1171   2.077       .  S
Cu1162     N1164   2.069       .  S
Cu1162     N1170   2.069       .  S
N1163      N1164   1.322       .  A
N1163      C1167   1.349       .  A
N1164      C1165   1.342       .  A
C1165      C1166   1.380       .  A
C1165      H1168   1.084       .  S
C1166      C2133   1.476       .  S
C1166      C1167   1.384       .  A
C1167      H1169   1.082       .  S
N1170      N1171   1.321       .  A
N1170      C1174   1.342       .  A
N1171      C1172   1.348       .  A
C1172      C1173   1.387       .  A
C1172      H1175   1.081       .  S
C1173      C1480   1.481       .  S
C1173      C1174   1.382       .  A
C1174      H1176   1.084       .  S
N1177      N1178   1.322       .  A
N1177      C1181   1.344       .  A
N1177     Cu1185   2.074       .  S
N1178      C1179   1.344       .  A
N1178     Cu1184   2.077       .  S
C1179      C1180   1.387       .  A
C1179      H1182   1.082       .  S
C1180      C1443   1.489       .  S
C1180      C1181   1.386       .  A
C1181      H1183   1.082       .  S
Cu1184     N1187   2.076       .  S
Cu1185     N1195   2.075       .  S
Cu1186     N1188   2.059       .  S
Cu1186     N1194   2.060       .  S
N1187      N1188   1.321       .  A
N1187      C1191   1.348       .  A
N1188      C1189   1.341       .  A
C1189      C1190   1.380       .  A
C1189      H1192   1.083       .  S
C1190      C2173   1.476       .  S
C1190      C1191   1.385       .  A
C1191      H1193   1.080       .  S
N1194      N1195   1.321       .  A
N1194      C1198   1.341       .  A
N1195      C1196   1.346       .  A
C1196      C1197   1.385       .  A
C1196      H1199   1.082       .  S
C1197      C1453   1.477       .  S
C1197      C1198   1.380       .  A
C1198      H1200   1.083       .  S
N1201      N1202   1.323       .  A
N1201      C1205   1.344       .  A
N1201     Cu1209   2.069       .  S
N1202      C1203   1.344       .  A
N1202     Cu1208   2.091       .  S
C1203      C1204   1.390       .  A
C1203      H1206   1.083       .  S
C1204      C1430   1.492       .  S
C1204      C1205   1.385       .  A
C1205      H1207   1.082       .  S
Cu1208     N1211   2.090       .  S
Cu1209     N1219   2.069       .  S
Cu1210     N1212   2.058       .  S
Cu1210     N1218   2.058       .  S
N1211      N1212   1.321       .  A
N1211      C1215   1.349       .  A
N1212      C1213   1.340       .  A
C1213      C1214   1.382       .  A
C1213      H1216   1.083       .  S
C1214      C2253   1.489       .  S
C1214      C1215   1.392       .  A
C1215      H1217   1.081       .  S
N1218      N1219   1.321       .  A
N1218      C1222   1.342       .  A
N1219      C1220   1.346       .  A
C1220      C1221   1.383       .  A
C1220      H1223   1.082       .  S
C1221      C1450   1.470       .  S
C1221      C1222   1.379       .  A
C1222      H1224   1.084       .  S
C1225      C2030   1.518       .  S
C1225      C1226   1.436       .  A
C1225      C1230   1.433       .  A
C1226      C1523   1.515       .  S
C1226      C1227   1.435       .  A
C1227      C1893   1.515       .  S
C1227      C1228   1.435       .  A
C1228      C1440   1.520       .  S
C1228      C1229   1.431       .  A
C1229      C1833   1.517       .  S
C1229      C1230   1.435       .  A
C1230      C1420   1.512       .  S
C1231      C2013   1.522       .  S
C1231      C1232   1.434       .  A
C1231      C1236   1.427       .  A
C1232      C1433   1.499       .  S
C1232      C1233   1.439       .  A
C1233      C2073   1.543       .  S
C1233      C1234   1.445       .  A
C1234      C1463   1.498       .  S
C1234      C1235   1.440       .  A
C1235      C2043   1.528       .  S
C1235      C1236   1.427       .  A
C1236      C1493   1.509       .  S
C1237      C1613   1.516       .  S
C1237      C1238   1.433       .  A
C1237      C1242   1.434       .  A
C1238      C2003   1.520       .  S
C1238      C1239   1.437       .  A
C1239      C1580   1.518       .  S
C1239      C1240   1.436       .  A
C1240      C1983   1.520       .  S
C1240      C1241   1.438       .  A
C1241      C1473   1.512       .  S
C1241      C1242   1.435       .  A
C1242      C1953   1.520       .  S
C1243      C2060   1.516       .  S
C1243      C1244   1.435       .  A
C1243      C1248   1.434       .  A
C1244      C1640   1.514       .  S
C1244      C1245   1.440       .  A
C1245      C1860   1.528       .  S
C1245      C1246   1.437       .  A
C1246      C1503   1.516       .  S
C1246      C1247   1.440       .  A
C1247      C1923   1.515       .  S
C1247      C1248   1.432       .  A
C1248      C1553   1.526       .  S
N1249      N1250   1.323       .  A
N1249      C1253   1.344       .  A
N1249     Cu1257   2.078       .  S
N1250      C1251   1.345       .  A
N1250     Cu1256   2.080       .  S
C1251      C1252   1.386       .  A
C1251      H1254   1.083       .  S
C1252      C1400   1.489       .  S
C1252      C1253   1.386       .  A
C1253      H1255   1.083       .  S
Cu1256     N1259   2.078       .  S
Cu1257     N1267   2.078       .  S
Cu1258     N1260   2.068       .  S
Cu1258     N1266   2.068       .  S
N1259      N1260   1.321       .  A
N1259      C1263   1.349       .  A
N1260      C1261   1.342       .  A
C1261      C1262   1.382       .  A
C1261      H1264   1.081       .  S
C1262      C2220   1.482       .  S
C1262      C1263   1.387       .  A
C1263      H1265   1.079       .  S
N1266      N1267   1.322       .  A
N1266      C1270   1.342       .  A
N1267      C1268   1.349       .  A
C1268      C1269   1.384       .  A
C1268      H1271   1.081       .  S
C1269      C1410   1.474       .  S
C1269      C1270   1.379       .  A
C1270      H1272   1.083       .  S
N1273      N1274   1.323       .  A
N1273      C1277   1.343       .  A
N1273     Cu1281   2.075       .  S
N1274      C1275   1.345       .  A
N1274     Cu1280   2.076       .  S
C1275      C1276   1.385       .  A
C1275      H1278   1.083       .  S
C1276      C1423   1.484       .  S
C1276      C1277   1.384       .  A
C1277      H1279   1.083       .  S
Cu1280     N1283   2.075       .  S
Cu1281     N1291   2.074       .  S
Cu1282     N1284   2.066       .  S
Cu1282     N1290   2.066       .  S
N1283      N1284   1.322       .  A
N1283      C1287   1.348       .  A
N1284      C1285   1.341       .  A
C1285      C1286   1.378       .  A
C1285      H1288   1.084       .  S
C1286      C2313   1.473       .  S
C1286      C1287   1.384       .  A
C1287      H1289   1.081       .  S
N1290      N1291   1.321       .  A
N1290      C1294   1.343       .  A
N1291      C1292   1.347       .  A
C1292      C1293   1.385       .  A
C1292      H1295   1.082       .  S
C1293      C1413   1.478       .  S
C1293      C1294   1.381       .  A
C1294      H1296   1.083       .  S
C1297      C1883   1.521       .  S
C1297      C1298   1.434       .  A
C1297      C1302   1.439       .  A
C1298      C1390   1.518       .  S
C1298      C1299   1.436       .  A
C1299      C1913   1.510       .  S
C1299      C1300   1.432       .  A
C1300      C1403   1.520       .  S
C1300      C1301   1.434       .  A
C1301      C1743   1.520       .  S
C1301      C1302   1.434       .  A
C1302      C1653   1.510       .  S
C1303      C1703   1.513       .  S
C1303      C1304   1.428       .  A
C1303      C1308   1.433       .  A
C1304      C1973   1.515       .  S
C1304      C1305   1.441       .  A
C1305      C1533   1.536       .  S
C1305      C1306   1.423       .  A
C1306      C1803   1.538       .  S
C1306      C1307   1.442       .  A
C1307      C1623   1.519       .  S
C1307      C1308   1.430       .  A
C1308      C1820   1.504       .  S
C1309      C1940   1.538       .  S
C1309      C1310   1.439       .  A
C1309      C1314   1.428       .  A
C1310      C1673   1.521       .  S
C1310      C1311   1.429       .  A
C1311      C1853   1.516       .  S
C1311      C1312   1.434       .  A
C1312      C1593   1.499       .  S
C1312      C1313   1.435       .  A
C1313      C1773   1.535       .  S
C1313      C1314   1.445       .  A
C1314      C1563   1.538       .  S
N1315      N1316   1.323       .  A
N1315      C1319   1.342       .  A
N1315     Cu1323   2.078       .  S
N1316      C1317   1.347       .  A
N1316     Cu1322   2.087       .  S
C1317      C1318   1.389       .  A
C1317      H1320   1.081       .  S
C1318      C1373   1.493       .  S
C1318      C1319   1.386       .  A
C1319      H1321   1.083       .  S
Cu1322     N1325   2.086       .  S
Cu1323     N1333   2.077       .  S
Cu1324     N1326   2.057       .  S
Cu1324     N1332   2.057       .  S
N1325      N1326   1.321       .  A
N1325      C1329   1.350       .  A
N1326      C1327   1.339       .  A
C1327      C1328   1.380       .  A
C1327      H1330   1.083       .  S
C1328      C2123   1.484   1_545  S
C1328      C1329   1.390       .  A
C1329      H1331   1.082       .  S
N1332      N1333   1.319       .  A
N1332      C1336   1.340       .  A
N1333      C1334   1.349       .  A
C1334      C1335   1.388       .  A
C1334      H1337   1.080       .  S
C1335      C1380   1.482       .  S
C1335      C1336   1.381       .  A
C1336      H1338   1.084       .  S
N1339      N1340   1.323       .  A
N1339      C1343   1.345       .  A
N1339     Cu1347   2.082       .  S
N1340      C1341   1.344       .  A
N1340     Cu1346   2.072       .  S
C1341      C1342   1.384       .  A
C1341      H1344   1.083       .  S
C1342      C1393   1.486       .  S
C1342      C1343   1.386       .  A
C1343      H1345   1.083       .  S
Cu1346     N1349   2.071       .  S
Cu1347     N1357   2.082       .  S
Cu1348     N1350   2.070       .  S
Cu1348     N1356   2.070       .  S
N1349      N1350   1.320       .  A
N1349      C1353   1.347       .  A
N1350      C1351   1.343       .  A
C1351      C1352   1.384       .  A
C1351      H1354   1.081       .  S
C1352      C2160   1.482   1_545  S
C1352      C1353   1.385       .  A
C1353      H1355   1.081       .  S
N1356      N1357   1.322       .  A
N1356      C1360   1.341       .  A
N1357      C1358   1.350       .  A
C1358      C1359   1.386       .  A
C1358      H1361   1.081       .  S
C1359      C1383   1.479       .  S
C1359      C1360   1.380       .  A
C1360      H1362   1.084       .  S
C1363      C1370   1.519       .  S
C1363      C1364   1.428       .  A
C1363      C1368   1.438       .  A
C1364      C1793   1.518       .  S
C1364      C1365   1.428       .  A
C1365      C1683   1.529       .  S
C1365      C1366   1.446       .  A
C1366      C1733   1.505       .  S
C1366      C1367   1.452       .  A
C1367      C1713   1.557       .  S
C1367      C1368   1.446       .  A
C1368      C1763   1.506       .  S
C1369      C1370   1.422       .  A
C1369      C1374   1.408       .  A
C1369     Br1376   1.916       .  S
C1370      C1371   1.419       .  A
C1371      C1372   1.412       .  A
C1371     Br1378   1.928       .  S
C1372      C1373   1.412       .  A
C1372     Br1377   1.934       .  S
C1373      C1374   1.409       .  A
C1374     Br1375   1.938       .  S
C1379      C1380   1.410       .  A
C1379      C1384   1.405       .  A
C1379     Br1386   1.931       .  S
C1380      C1381   1.414       .  A
C1381      C1382   1.412       .  A
C1381     Br1388   1.930       .  S
C1382      C1383   1.410       .  A
C1382     Br1387   1.929       .  S
C1383      C1384   1.408       .  A
C1384     Br1385   1.931       .  S
C1389      C1390   1.419       .  A
C1389      C1394   1.407       .  A
C1389     Br1396   1.927       .  S
C1390      C1391   1.424       .  A
C1391      C1392   1.411       .  A
C1391     Br1398   1.912       .  S
C1392      C1393   1.409       .  A
C1392     Br1397   1.939       .  S
C1393      C1394   1.408       .  A
C1394     Br1395   1.933       .  S
C1399      C1400   1.411       .  A
C1399      C1404   1.413       .  A
C1399     Br1406   1.938       .  S
C1400      C1401   1.406       .  A
C1401      C1402   1.405       .  A
C1401     Br1408   1.933       .  S
C1402      C1403   1.419       .  A
C1402     Br1407   1.922       .  S
C1403      C1404   1.424       .  A
C1404     Br1405   1.914       .  S
C1409      C1410   1.408       .  A
C1409      C1414   1.407       .  A
C1409     Br1416   1.929       .  S
C1410      C1411   1.407       .  A
C1411      C1412   1.408       .  A
C1411     Br1418   1.929       .  S
C1412      C1413   1.411       .  A
C1412     Br1417   1.930       .  S
C1413      C1414   1.410       .  A
C1414     Br1415   1.929       .  S
C1419      C1420   1.418       .  A
C1419      C1424   1.404       .  A
C1419     Br1426   1.925       .  S
C1420      C1421   1.422       .  A
C1421      C1422   1.409       .  A
C1421     Br1428   1.913       .  S
C1422      C1423   1.409       .  A
C1422     Br1427   1.937       .  S
C1423      C1424   1.407       .  A
C1424     Br1425   1.932       .  S
C1429      C1430   1.412       .  A
C1429      C1434   1.404       .  A
C1429     Br1436   1.933       .  S
C1430      C1431   1.419       .  A
C1431      C1432   1.413       .  A
C1431     Br1438   1.935       .  S
C1432      C1433   1.415       .  A
C1432     Br1437   1.925       .  S
C1433      C1434   1.410       .  A
C1434     Br1435   1.927       .  S
C1439      C1440   1.419       .  A
C1439      C1444   1.406       .  A
C1439     Br1446   1.920       .  S
C1440      C1441   1.423       .  A
C1441      C1442   1.412       .  A
C1441     Br1448   1.914       .  S
C1442      C1443   1.412       .  A
C1442     Br1447   1.939       .  S
C1443      C1444   1.407       .  A
C1444     Br1445   1.935       .  S
C1449      C1450   1.406       .  A
C1449      C1454   1.405       .  A
C1449     Br1456   1.931       .  S
C1450      C1451   1.408       .  A
C1451      C1452   1.407       .  A
C1451     Br1458   1.930       .  S
C1452      C1453   1.412       .  A
C1452     Br1457   1.931       .  S
C1453      C1454   1.411       .  A
C1454     Br1455   1.931       .  S
C1459      C1460   1.418       .  A
C1459      C1464   1.409       .  A
C1459     Br1466   1.935       .  S
C1460      C1461   1.415       .  A
C1461      C1462   1.405       .  A
C1461     Br1468   1.932       .  S
C1462      C1463   1.410       .  A
C1462     Br1467   1.924       .  S
C1463      C1464   1.413       .  A
C1464     Br1465   1.929       .  S
C1469      C1470   1.413       .  A
C1469      C1474   1.411       .  A
C1469     Br1476   1.935       .  S
C1470      C1471   1.406       .  A
C1471      C1472   1.404       .  A
C1471     Br1478   1.936       .  S
C1472      C1473   1.418       .  A
C1472     Br1477   1.911       .  S
C1473      C1474   1.420       .  A
C1474     Br1475   1.929       .  S
C1479      C1480   1.412       .  A
C1479      C1484   1.410       .  A
C1479     Br1486   1.932       .  S
C1480      C1481   1.409       .  A
C1481      C1482   1.407       .  A
C1481     Br1488   1.931       .  S
C1482      C1483   1.411       .  A
C1482     Br1487   1.931       .  S
C1483      C1484   1.413       .  A
C1484     Br1485   1.932       .  S
C1489      C1490   1.417       .  A
C1489      C1494   1.413       .  A
C1489     Br1496   1.936       .  S
C1490      C1491   1.414       .  A
C1491      C1492   1.409       .  A
C1491     Br1498   1.934       .  S
C1492      C1493   1.417       .  A
C1492     Br1497   1.934       .  S
C1493      C1494   1.415       .  A
C1494     Br1495   1.915       .  S
C1499      C1500   1.412       .  A
C1499      C1504   1.412       .  A
C1499     Br1506   1.937       .  S
C1500      C1501   1.409       .  A
C1501      C1502   1.406       .  A
C1501     Br1508   1.932       .  S
C1502      C1503   1.419       .  A
C1502     Br1507   1.928       .  S
C1503      C1504   1.422       .  A
C1504     Br1505   1.917       .  S
C1509      C1510   1.408       .  A
C1509      C1514   1.409       .  A
C1509     Br1516   1.929       .  S
C1510      C1511   1.410       .  A
C1511      C1512   1.409       .  A
C1511     Br1518   1.930       .  S
C1512      C1513   1.409       .  A
C1512     Br1517   1.929       .  S
C1513      C1514   1.411       .  A
C1514     Br1515   1.929       .  S
C1519      C1520   1.408       .  A
C1519      C1524   1.412       .  A
C1519     Br1526   1.936       .  S
C1520      C1521   1.405       .  A
C1521      C1522   1.404       .  A
C1521     Br1528   1.935       .  S
C1522      C1523   1.420       .  A
C1522     Br1527   1.922       .  S
C1523      C1524   1.421       .  A
C1524     Br1525   1.915       .  S
C1529      C1530   1.409       .  A
C1529      C1534   1.417       .  A
C1529     Br1536   1.930       .  S
C1530      C1531   1.403       .  A
C1531      C1532   1.396       .  A
C1531     Br1538   1.923       .  S
C1532      C1533   1.401       .  A
C1532     Br1537   1.913       .  S
C1533      C1534   1.433       .  A
C1534     Br1535   1.933       .  S
C1539      C1540   1.412       .  A
C1539      C1544   1.406       .  A
C1539     Br1546   1.932       .  S
C1540      C1541   1.412       .  A
C1541      C1542   1.410       .  A
C1541     Br1548   1.930       .  S
C1542      C1543   1.413       .  A
C1542     Br1547   1.932       .  S
C1543      C1544   1.409       .  A
C1544     Br1545   1.931       .  S
C1549      C1550   1.412       .  A
C1549      C1554   1.410       .  A
C1549     Br1556   1.932       .  S
C1550      C1551   1.416       .  A
C1551      C1552   1.418       .  A
C1551     Br1558   1.937       .  S
C1552      C1553   1.423       .  A
C1552     Br1557   1.919       .  S
C1553      C1554   1.418       .  A
C1554     Br1555   1.926       .  S
C1559      C1560   1.402       .  A
C1559      C1564   1.399       .  A
C1559     Br1566   1.923       .  S
C1560      C1561   1.406       .  A
C1561      C1562   1.416       .  A
C1561     Br1568   1.935       .  S
C1562      C1563   1.440       .  A
C1562     Br1567   1.934       .  S
C1563      C1564   1.407       .  A
C1564     Br1565   1.906       .  S
C1569      C1570   1.409       .  A
C1569      C1574   1.410       .  A
C1569     Br1576   1.929       .  S
C1570      C1571   1.407       .  A
C1571      C1572   1.407       .  A
C1571     Br1578   1.930       .  S
C1572      C1573   1.411       .  A
C1572     Br1577   1.930       .  S
C1573      C1574   1.411       .  A
C1574     Br1575   1.929       .  S
C1579      C1580   1.419       .  A
C1579      C1584   1.407       .  A
C1579     Br1586   1.922       .  S
C1580      C1581   1.422       .  A
C1581      C1582   1.412       .  A
C1581     Br1588   1.912       .  S
C1582      C1583   1.409       .  A
C1582     Br1587   1.937       .  S
C1583      C1584   1.409       .  A
C1584     Br1585   1.935       .  S
C1589      C1590   1.417       .  A
C1589      C1594   1.407       .  A
C1589     Br1596   1.931       .  S
C1590      C1591   1.419       .  A
C1591      C1592   1.411       .  A
C1591     Br1598   1.935       .  S
C1592      C1593   1.416       .  A
C1592     Br1597   1.935       .  S
C1593      C1594   1.406       .  A
C1594     Br1595   1.919       .  S
C1599      C1600   1.410       .  A
C1599      C1604   1.410       .  A
C1599     Br1606   1.928       .  S
C1600      C1601   1.411       .  A
C1601      C1602   1.407       .  A
C1601     Br1608   1.930       .  S
C1602      C1603   1.407       .  A
C1602     Br1607   1.929       .  S
C1603      C1604   1.409       .  A
C1604     Br1605   1.929       .  S
C1609      C1610   1.415       .  A
C1609      C1614   1.411       .  A
C1609     Br1616   1.935       .  S
C1610      C1611   1.415       .  A
C1611      C1612   1.408       .  A
C1611     Br1618   1.936       .  S
C1612      C1613   1.416       .  A
C1612     Br1617   1.918       .  S
C1613      C1614   1.419       .  A
C1614     Br1615   1.922       .  S
C1619      C1620   1.412       .  A
C1619      C1624   1.414       .  A
C1619     Br1626   1.939       .  S
C1620      C1621   1.408       .  A
C1621      C1622   1.410       .  A
C1621     Br1628   1.931       .  S
C1622      C1623   1.422       .  A
C1622     Br1627   1.935       .  S
C1623      C1624   1.427       .  A
C1624     Br1625   1.924       .  S
C1629      C1630   1.407       .  A
C1629      C1634   1.405       .  A
C1629     Br1636   1.932       .  S
C1630      C1631   1.408       .  A
C1631      C1632   1.410       .  A
C1631     Br1638   1.929       .  S
C1632      C1633   1.413       .  A
C1632     Br1637   1.930       .  S
C1633      C1634   1.414       .  A
C1634     Br1635   1.933       .  S
C1639      C1640   1.421       .  A
C1639      C1644   1.406       .  A
C1639     Br1646   1.918       .  S
C1640      C1641   1.420       .  A
C1641      C1642   1.411       .  A
C1641     Br1648   1.930       .  S
C1642      C1643   1.412       .  A
C1642     Br1647   1.934       .  S
C1643      C1644   1.409       .  A
C1644     Br1645   1.939       .  S
C1649      C1650   1.407       .  A
C1649      C1654   1.404       .  A
C1649     Br1656   1.935       .  S
C1650      C1651   1.409       .  A
C1651      C1652   1.412       .  A
C1651     Br1658   1.936       .  S
C1652      C1653   1.421       .  A
C1652     Br1657   1.917       .  S
C1653      C1654   1.418       .  A
C1654     Br1655   1.926       .  S
C1659      C1660   1.409       .  A
C1659      C1664   1.405       .  A
C1659     Br1666   1.930   1_545  S
C1660      C1661   1.411       .  A
C1661      C1662   1.408       .  A
C1661     Br1668   1.932       .  S
C1662      C1663   1.411       .  A
C1662     Br1667   1.931       .  S
C1663      C1664   1.409       .  A
C1664     Br1665   1.930   1_545  S
C1669      C1670   1.411       .  A
C1669      C1674   1.407       .  A
C1669     Br1676   1.938       .  S
C1670      C1671   1.416       .  A
C1671      C1672   1.415       .  A
C1671     Br1678   1.934       .  S
C1672      C1673   1.422       .  A
C1672     Br1677   1.931       .  S
C1673      C1674   1.420       .  A
C1674     Br1675   1.910       .  S
C1679      C1680   1.415       .  A
C1679      C1684   1.419       .  A
C1679     Br1686   1.933       .  S
C1680      C1681   1.410       .  A
C1681      C1682   1.407       .  A
C1681     Br1688   1.938       .  S
C1682      C1683   1.422       .  A
C1682     Br1687   1.914       .  S
C1683      C1684   1.423       .  A
C1684     Br1685   1.925       .  S
C1689      C1690   1.408       .  A
C1689      C1694   1.409       .  A
C1689     Br1696   1.929       .  S
C1690      C1691   1.410       .  A
C1691      C1692   1.410       .  A
C1691     Br1698   1.929       .  S
C1692      C1693   1.410       .  A
C1692     Br1697   1.929       .  S
C1693      C1694   1.412       .  A
C1694     Br1695   1.929       .  S
C1699      C1700   1.410       .  A
C1699      C1704   1.406       .  A
C1699     Br1706   1.932       .  S
C1700      C1701   1.411       .  A
C1701      C1702   1.412       .  A
C1701     Br1708   1.938       .  S
C1702      C1703   1.423       .  A
C1702     Br1707   1.919       .  S
C1703      C1704   1.416       .  A
C1704     Br1705   1.929       .  S
C1709      C1710   1.415       .  A
C1709      C1714   1.407       .  A
C1709     Br1716   1.929       .  S
C1710      C1711   1.416       .  A
C1711      C1712   1.419       .  A
C1711     Br1718   1.935       .  S
C1712      C1713   1.424       .  A
C1712     Br1717   1.914       .  S
C1713      C1714   1.419       .  A
C1714     Br1715   1.922       .  S
C1719      C1720   1.410       .  A
C1719      C1724   1.409       .  A
C1719     Br1726   1.930       .  S
C1720      C1721   1.411       .  A
C1721      C1722   1.412       .  A
C1721     Br1728   1.928       .  S
C1722      C1723   1.410       .  A
C1722     Br1727   1.929       .  S
C1723      C1724   1.411       .  A
C1724     Br1725   1.931       .  S
C1729      C1730   1.409       .  A
C1729      C1734   1.402       .  A
C1729     Br1736   1.935       .  S
C1730      C1731   1.416       .  A
C1731      C1732   1.415       .  A
C1731     Br1738   1.932       .  S
C1732      C1733   1.417       .  A
C1732     Br1737   1.925       .  S
C1733      C1734   1.415       .  A
C1734     Br1735   1.927       .  S
C1739      C1740   1.413       .  A
C1739      C1744   1.415       .  A
C1739     Br1746   1.936       .  S
C1740      C1741   1.407       .  A
C1741      C1742   1.403       .  A
C1741     Br1748   1.933       .  S
C1742      C1743   1.417       .  A
C1742     Br1747   1.921       .  S
C1743      C1744   1.424       .  A
C1744     Br1745   1.916       .  S
C1749      C1750   1.413       .  A
C1749      C1754   1.404   1_556  A
C1749     Br1756   1.932       .  S
C1750      C1751   1.412       .  A
C1751      C1752   1.407   1_556  A
C1751     Br1758   1.930       .  S
C1752      C1753   1.406       .  A
C1752     Br1757   1.930       .  S
C1753      C1754   1.406       .  A
C1754     Br1755   1.931       .  S
C1759      C1760   1.413       .  A
C1759      C1764   1.408       .  A
C1759     Br1766   1.931       .  S
C1760      C1761   1.416       .  A
C1761      C1762   1.411       .  A
C1761     Br1768   1.932       .  S
C1762      C1763   1.415       .  A
C1762     Br1767   1.924       .  S
C1763      C1764   1.416       .  A
C1764     Br1765   1.922       .  S
C1769      C1770   1.407       .  A
C1769      C1774   1.416       .  A
C1769     Br1776   1.941       .  S
C1770      C1771   1.405       .  A
C1771      C1772   1.411       .  A
C1771     Br1778   1.933       .  S
C1772      C1773   1.423       .  A
C1772     Br1777   1.920       .  S
C1773      C1774   1.433       .  A
C1774     Br1775   1.917       .  S
C1779      C1780   1.413       .  A
C1779      C1784   1.410   1_655  A
C1779     Br1786   1.931       .  S
C1780      C1781   1.412       .  A
C1781      C1782   1.411   1_655  A
C1781     Br1788   1.930       .  S
C1782      C1783   1.409       .  A
C1782     Br1787   1.929       .  S
C1783      C1784   1.409       .  A
C1784     Br1785   1.930       .  S
C1789      C1790   1.412       .  A
C1789      C1794   1.414       .  A
C1789     Br1796   1.937       .  S
C1790      C1791   1.410       .  A
C1791      C1792   1.408       .  A
C1791     Br1798   1.932       .  S
C1792      C1793   1.419       .  A
C1792     Br1797   1.929       .  S
C1793      C1794   1.421       .  A
C1794     Br1795   1.914       .  S
C1799      C1800   1.407       .  A
C1799      C1804   1.416       .  A
C1799     Br1806   1.933       .  S
C1800      C1801   1.401       .  A
C1801      C1802   1.395       .  A
C1801     Br1808   1.921       .  S
C1802      C1803   1.403       .  A
C1802     Br1807   1.911       .  S
C1803      C1804   1.439       .  A
C1804     Br1805   1.934       .  S
C1809      C1810   1.412       .  A
C1809      C1814   1.411       .  A
C1809     Br1816   1.930       .  S
C1810      C1811   1.410       .  A
C1811      C1812   1.406       .  A
C1811     Br1818   1.931       .  S
C1812      C1813   1.409       .  A
C1812     Br1817   1.931       .  S
C1813      C1814   1.411       .  A
C1814     Br1815   1.930       .  S
C1819      C1820   1.421       .  A
C1819      C1824   1.413       .  A
C1819     Br1826   1.923       .  S
C1820      C1821   1.412       .  A
C1821      C1822   1.397       .  A
C1821     Br1828   1.927       .  S
C1822      C1823   1.409       .  A
C1822     Br1827   1.933       .  S
C1823      C1824   1.415       .  A
C1824     Br1825   1.935       .  S
C1829      C1830   1.412       .  A
C1829      C1834   1.410       .  A
C1829     Br1836   1.936       .  S
C1830      C1831   1.415       .  A
C1831      C1832   1.411       .  A
C1831     Br1838   1.937       .  S
C1832      C1833   1.419       .  A
C1832     Br1837   1.926       .  S
C1833      C1834   1.419       .  A
C1834     Br1835   1.916       .  S
C1839      C1840   1.412       .  A
C1839      C1844   1.404   1_556  A
C1839     Br1846   1.932       .  S
C1840      C1841   1.409       .  A
C1841      C1842   1.409   1_556  A
C1841     Br1848   1.928       .  S
C1842      C1843   1.408       .  A
C1842     Br1847   1.928       .  S
C1843      C1844   1.406       .  A
C1844     Br1845   1.931       .  S
C1849      C1850   1.411       .  A
C1849      C1854   1.409       .  A
C1849     Br1856   1.937       .  S
C1850      C1851   1.414       .  A
C1851      C1852   1.411       .  A
C1851     Br1858   1.934       .  S
C1852      C1853   1.417       .  A
C1852     Br1857   1.929       .  S
C1853      C1854   1.419       .  A
C1854     Br1855   1.912       .  S
C1859      C1860   1.426       .  A
C1859      C1864   1.418       .  A
C1859     Br1866   1.917       .  S
C1860      C1861   1.419       .  A
C1861      C1862   1.407       .  A
C1861     Br1868   1.925       .  S
C1862      C1863   1.408       .  A
C1862     Br1867   1.932       .  S
C1863      C1864   1.412       .  A
C1864     Br1865   1.936       .  S
C1869      C1870   1.412       .  A
C1869      C1874   1.408   1_556  A
C1869     Br1876   1.930       .  S
C1870      C1871   1.411       .  A
C1871      C1872   1.411   1_556  A
C1871     Br1878   1.928       .  S
C1872      C1873   1.409       .  A
C1872     Br1877   1.928       .  S
C1873      C1874   1.409       .  A
C1874     Br1875   1.931       .  S
C1879      C1880   1.416       .  A
C1879      C1884   1.411       .  A
C1879     Br1886   1.935       .  S
C1880      C1881   1.418       .  A
C1881      C1882   1.413       .  A
C1881     Br1888   1.934       .  S
C1882      C1883   1.418       .  A
C1882     Br1887   1.930       .  S
C1883      C1884   1.419       .  A
C1884     Br1885   1.915       .  S
C1889      C1890   1.414       .  A
C1889      C1894   1.414       .  A
C1889     Br1896   1.937       .  S
C1890      C1891   1.407       .  A
C1891      C1892   1.403       .  A
C1891     Br1898   1.934       .  S
C1892      C1893   1.417       .  A
C1892     Br1897   1.923       .  S
C1893      C1894   1.421       .  A
C1894     Br1895   1.918       .  S
C1899      C1900   1.414       .  A
C1899      C1904   1.406       .  A
C1899     Br1906   1.933       .  S
C1900      C1901   1.414       .  A
C1901      C1902   1.410       .  A
C1901     Br1908   1.931       .  S
C1902      C1903   1.408       .  A
C1902     Br1907   1.929       .  S
C1903      C1904   1.407       .  A
C1904     Br1905   1.931       .  S
C1909      C1910   1.413       .  A
C1909      C1914   1.407       .  A
C1909     Br1916   1.937       .  S
C1910      C1911   1.415       .  A
C1911      C1912   1.409       .  A
C1911     Br1918   1.934       .  S
C1912      C1913   1.416       .  A
C1912     Br1917   1.919       .  S
C1913      C1914   1.417       .  A
C1914     Br1915   1.925       .  S
C1919      C1920   1.417       .  A
C1919      C1924   1.411       .  A
C1919     Br1926   1.937       .  S
C1920      C1921   1.415       .  A
C1921      C1922   1.411       .  A
C1921     Br1928   1.936       .  S
C1922      C1923   1.419       .  A
C1922     Br1927   1.926       .  S
C1923      C1924   1.417       .  A
C1924     Br1925   1.920       .  S
C1929      C1930   1.411       .  A
C1929      C1934   1.404   1_655  A
C1929     Br1936   1.931       .  S
C1930      C1931   1.409       .  A
C1931      C1932   1.407   1_655  A
C1931     Br1938   1.929       .  S
C1932      C1933   1.408       .  A
C1932     Br1937   1.930       .  S
C1933      C1934   1.406       .  A
C1934     Br1935   1.931       .  S
C1939      C1940   1.426       .  A
C1939      C1944   1.411       .  A
C1939     Br1946   1.929       .  S
C1940      C1941   1.403       .  A
C1941      C1942   1.402       .  A
C1941     Br1948   1.920       .  S
C1942      C1943   1.407       .  A
C1942     Br1947   1.924       .  S
C1943      C1944   1.407       .  A
C1944     Br1945   1.929       .  S
C1949      C1950   1.408       .  A
C1949      C1954   1.405       .  A
C1949     Br1956   1.933       .  S
C1950      C1951   1.409       .  A
C1951      C1952   1.412       .  A
C1951     Br1958   1.940       .  S
C1952      C1953   1.425       .  A
C1952     Br1957   1.911       .  S
C1953      C1954   1.418       .  A
C1954     Br1955   1.926       .  S
C1959      C1960   1.406       .  A
C1959      C1964   1.405       .  A
C1959     Br1966   1.929       .  S
C1960      C1961   1.408       .  A
C1961      C1962   1.408       .  A
C1961     Br1968   1.930       .  S
C1962      C1963   1.412       .  A
C1962     Br1967   1.930       .  S
C1963      C1964   1.411       .  A
C1964     Br1965   1.931       .  S
C1969      C1970   1.412       .  A
C1969      C1974   1.414       .  A
C1969     Br1976   1.938       .  S
C1970      C1971   1.410       .  A
C1971      C1972   1.408       .  A
C1971     Br1978   1.931       .  S
C1972      C1973   1.420       .  A
C1972     Br1977   1.939       .  S
C1973      C1974   1.425       .  A
C1974     Br1975   1.925       .  S
C1979      C1980   1.417       .  A
C1979      C1984   1.412       .  A
C1979     Br1986   1.937       .  S
C1980      C1981   1.415       .  A
C1981      C1982   1.412       .  A
C1981     Br1988   1.935       .  S
C1982      C1983   1.418       .  A
C1982     Br1987   1.916       .  S
C1983      C1984   1.419       .  A
C1984     Br1985   1.927       .  S
C1989      C1990   1.413       .  A
C1989      C1994   1.409   1_655  A
C1989     Br1996   1.931       .  S
C1990      C1991   1.412       .  A
C1991      C1992   1.410   1_655  A
C1991     Br1998   1.930       .  S
C1992      C1993   1.409       .  A
C1992     Br1997   1.929       .  S
C1993      C1994   1.408       .  A
C1994     Br1995   1.931       .  S
C1999      C2000   1.409       .  A
C1999      C2004   1.406       .  A
C1999     Br2006   1.934       .  S
C2000      C2001   1.414       .  A
C2001      C2002   1.415       .  A
C2001     Br2008   1.936       .  S
C2002      C2003   1.422       .  A
C2002     Br2007   1.916       .  S
C2003      C2004   1.418       .  A
C2004     Br2005   1.919       .  S
C2009      C2010   1.410       .  A
C2009      C2014   1.409       .  A
C2009     Br2016   1.936       .  S
C2010      C2011   1.411       .  A
C2011      C2012   1.412       .  A
C2011     Br2018   1.933       .  S
C2012      C2013   1.420       .  A
C2012     Br2017   1.920       .  S
C2013      C2014   1.420       .  A
C2014     Br2015   1.910       .  S
C2019      C2020   1.409       .  A
C2019      C2024   1.412   1_554  A
C2019     Br2026   1.929       .  S
C2020      C2021   1.408       .  A
C2021      C2022   1.408   1_554  A
C2021     Br2028   1.931       .  S
C2022      C2023   1.414       .  A
C2022     Br2027   1.931       .  S
C2023      C2024   1.413       .  A
C2024     Br2025   1.929       .  S
C2029      C2030   1.420       .  A
C2029      C2034   1.413       .  A
C2029     Br2036   1.926       .  S
C2030      C2031   1.420       .  A
C2031      C2032   1.406       .  A
C2031     Br2038   1.912       .  S
C2032      C2033   1.408       .  A
C2032     Br2037   1.937       .  S
C2033      C2034   1.413       .  A
C2034     Br2035   1.934       .  S
C2039      C2040   1.412       .  A
C2039      C2044   1.413       .  A
C2039     Br2046   1.936       .  S
C2040      C2041   1.412       .  A
C2041      C2042   1.413       .  A
C2041     Br2048   1.939       .  S
C2042      C2043   1.423       .  A
C2042     Br2047   1.909       .  S
C2043      C2044   1.420       .  A
C2044     Br2045   1.919       .  S
C2049      C2050   1.410       .  A
C2049      C2054   1.408   1_655  A
C2049     Br2056   1.932       .  S
C2050      C2051   1.410       .  A
C2051      C2052   1.411   1_655  A
C2051     Br2058   1.931       .  S
C2052      C2053   1.414       .  A
C2052     Br2057   1.931       .  S
C2053      C2054   1.413       .  A
C2054     Br2055   1.932       .  S
C2059      C2060   1.423       .  A
C2059      C2064   1.413       .  A
C2059     Br2066   1.916       .  S
C2060      C2061   1.419       .  A
C2061      C2062   1.404       .  A
C2061     Br2068   1.926       .  S
C2062      C2063   1.406       .  A
C2062     Br2067   1.934       .  S
C2063      C2064   1.409       .  A
C2064     Br2065   1.936       .  S
C2069      C2070   1.417       .  A
C2069      C2074   1.402       .  A
C2069     Br2076   1.927       .  S
C2070      C2071   1.421       .  A
C2071      C2072   1.414       .  A
C2071     Br2078   1.928       .  S
C2072      C2073   1.409       .  A
C2072     Br2077   1.916       .  S
C2073      C2074   1.404       .  A
C2074     Br2075   1.927       .  S
C2079      C2080   1.410       .  A
C2079      C2084   1.408       .  A
C2079     Br2086   1.932       .  S
C2080      C2081   1.411       .  A
C2081      C2082   1.409       .  A
C2081     Br2088   1.932       .  S
C2082      C2083   1.414       .  A
C2082     Br2087   1.932       .  S
C2083      C2084   1.412       .  A
C2084     Br2085   1.932       .  S
C2089      C2090   1.410       .  A
C2089      C2094   1.408       .  A
C2089     Br2096   1.930       .  S
C2090      C2091   1.412       .  A
C2091      C2092   1.404       .  A
C2091     Br2098   1.932       .  S
C2092      C2093   1.405       .  A
C2092     Br2097   1.930       .  S
C2093      C2094   1.408       .  A
C2094     Br2095   1.929       .  S
C2099      C2100   1.409       .  A
C2099      C2104   1.409       .  A
C2099     Br2106   1.929       .  S
C2100      C2101   1.407       .  A
C2101      C2102   1.403       .  A
C2101     Br2108   1.932       .  S
C2102      C2103   1.409       .  A
C2102     Br2107   1.926       .  S
C2103      C2104   1.412       .  A
C2104     Br2105   1.931       .  S
C2109      C2110   1.410       .  A
C2109      C2114   1.406       .  A
C2109     Br2116   1.932       .  S
C2110      C2111   1.411       .  A
C2111      C2112   1.408       .  A
C2111     Br2118   1.931   1_565  S
C2112      C2113   1.411       .  A
C2112     Br2117   1.931       .  S
C2113      C2114   1.411       .  A
C2114     Br2115   1.932       .  S
C2119      C2120   1.425       .  A
C2119      C2124   1.413       .  A
C2119     Br2126   1.936       .  S
C2120      C2121   1.429       .  A
C2121      C2122   1.407       .  A
C2121     Br2128   1.941       .  S
C2122      C2123   1.407       .  A
C2122     Br2127   1.939       .  S
C2123      C2124   1.408       .  A
C2124     Br2125   1.933   1_565  S
C2129      C2130   1.413       .  A
C2129      C2134   1.407       .  A
C2129     Br2136   1.932       .  S
C2130      C2131   1.413       .  A
C2131      C2132   1.409       .  A
C2131     Br2138   1.932       .  S
C2132      C2133   1.408       .  A
C2132     Br2137   1.929       .  S
C2133      C2134   1.407       .  A
C2134     Br2135   1.931       .  S
C2139      C2140   1.412       .  A
C2139      C2144   1.409       .  A
C2139     Br2146   1.935       .  S
C2140      C2141   1.415       .  A
C2141      C2142   1.413       .  A
C2141     Br2148   1.933       .  S
C2142      C2143   1.412       .  A
C2142     Br2147   1.930   1_565  S
C2143      C2144   1.414       .  A
C2144     Br2145   1.932       .  S
C2149      C2150   1.414       .  A
C2149      C2154   1.407       .  A
C2149     Br2156   1.932       .  S
C2150      C2151   1.411       .  A
C2151      C2152   1.407       .  A
C2151     Br2158   1.931       .  S
C2152      C2153   1.408       .  A
C2152     Br2157   1.931       .  S
C2153      C2154   1.408       .  A
C2154     Br2155   1.931       .  S
C2159      C2160   1.412   1_545  A
C2159      C2164   1.406   1_545  A
C2159     Br2166   1.932       .  S
C2160      C2161   1.413       .  A
C2161      C2162   1.410       .  A
C2161     Br2168   1.930       .  S
C2162      C2163   1.409       .  A
C2162     Br2167   1.930       .  S
C2163      C2164   1.409       .  A
C2164     Br2165   1.933       .  S
C2169      C2170   1.415       .  A
C2169      C2174   1.405       .  A
C2169     Br2176   1.935       .  S
C2170      C2171   1.416       .  A
C2171      C2172   1.410       .  A
C2171     Br2178   1.932       .  S
C2172      C2173   1.408       .  A
C2172     Br2177   1.930       .  S
C2173      C2174   1.408       .  A
C2174     Br2175   1.933       .  S
C2179      C2180   1.408       .  A
C2179      C2184   1.409       .  A
C2179     Br2186   1.924       .  S
C2180      C2181   1.410       .  A
C2181      C2182   1.408       .  A
C2181     Br2188   1.928       .  S
C2182      C2183   1.409       .  A
C2182     Br2187   1.931       .  S
C2183      C2184   1.410       .  A
C2184     Br2185   1.930       .  S
C2189      C2190   1.408       .  A
C2189      C2194   1.407       .  A
C2189     Br2196   1.930   1_565  S
C2190      C2191   1.409       .  A
C2191      C2192   1.410       .  A
C2191     Br2198   1.928       .  S
C2192      C2193   1.411       .  A
C2192     Br2197   1.929       .  S
C2193      C2194   1.407       .  A
C2194     Br2195   1.922       .  S
C2199      C2200   1.420       .  A
C2199      C2204   1.412       .  A
C2199     Br2206   1.934       .  S
C2200      C2201   1.422       .  A
C2201      C2202   1.410       .  A
C2201     Br2208   1.938       .  S
C2202      C2203   1.411       .  A
C2202     Br2207   1.937   1_565  S
C2203      C2204   1.411       .  A
C2204     Br2205   1.934       .  S
C2209      C2210   1.410       .  A
C2209      C2214   1.406       .  A
C2209     Br2216   1.933       .  S
C2210      C2211   1.412       .  A
C2211      C2212   1.410       .  A
C2211     Br2218   1.932       .  S
C2212      C2213   1.412       .  A
C2212     Br2217   1.931       .  S
C2213      C2214   1.412       .  A
C2214     Br2215   1.933       .  S
C2219      C2220   1.412       .  A
C2219      C2224   1.412       .  A
C2219     Br2226   1.930       .  S
C2220      C2221   1.411       .  A
C2221      C2222   1.405       .  A
C2221     Br2228   1.932       .  S
C2222      C2223   1.410       .  A
C2222     Br2227   1.933       .  S
C2223      C2224   1.411       .  A
C2224     Br2225   1.930       .  S
C2229      C2230   1.412       .  A
C2229      C2234   1.413       .  A
C2229     Br2236   1.929       .  S
C2230      C2231   1.413       .  A
C2231      C2232   1.405       .  A
C2231     Br2238   1.933       .  S
C2232      C2233   1.408       .  A
C2232     Br2237   1.932       .  S
C2233      C2234   1.411       .  A
C2234     Br2235   1.928       .  S
C2239      C2240   1.415       .  A
C2239      C2244   1.414       .  A
C2239     Br2246   1.932       .  S
C2240      C2241   1.411       .  A
C2241      C2242   1.409       .  A
C2241     Br2248   1.933       .  S
C2242      C2243   1.413       .  A
C2242     Br2247   1.931       .  S
C2243      C2244   1.413       .  A
C2244     Br2245   1.930       .  S
C2249      C2250   1.416       .  A
C2249      C2254   1.412       .  A
C2249     Br2256   1.930       .  S
C2250      C2251   1.416       .  A
C2251      C2252   1.409       .  A
C2251     Br2258   1.936       .  S
C2252      C2253   1.413       .  A
C2252     Br2257   1.935       .  S
C2253      C2254   1.413       .  A
C2254     Br2255   1.932       .  S
C2259      C2260   1.418       .  A
C2259      C2264   1.409       .  A
C2259     Br2266   1.933       .  S
C2260      C2261   1.419       .  A
C2261      C2262   1.403   1_565  A
C2261     Br2268   1.925       .  S
C2262      C2263   1.401       .  A
C2262     Br2267   1.935       .  S
C2263      C2264   1.405   1_545  A
C2264     Br2265   1.932       .  S
C2269      C2270   1.417       .  A
C2269      C2274   1.407       .  A
C2269     Br2276   1.933       .  S
C2270      C2271   1.412       .  A
C2271      C2272   1.411       .  A
C2271     Br2278   1.926       .  S
C2272      C2273   1.408       .  A
C2272     Br2277   1.928       .  S
C2273      C2274   1.406       .  A
C2274     Br2275   1.931       .  S
C2279      C2280   1.409       .  A
C2279      C2284   1.403   1_565  A
C2279     Br2286   1.916       .  S
C2280      C2281   1.416       .  A
C2281      C2282   1.412       .  A
C2281     Br2288   1.932       .  S
C2282      C2283   1.409       .  A
C2282     Br2287   1.928       .  S
C2283      C2284   1.408   1_565  A
C2284     Br2285   1.935       .  S
C2289      C2290   1.414       .  A
C2289      C2294   1.411       .  A
C2289     Br2296   1.932       .  S
C2290      C2291   1.411       .  A
C2291      C2292   1.407       .  A
C2291     Br2298   1.932       .  S
C2292      C2293   1.411       .  A
C2292     Br2297   1.931       .  S
C2293      C2294   1.409       .  A
C2294     Br2295   1.929       .  S
C2299      C2300   1.411       .  A
C2299      C2304   1.409       .  A
C2299     Br2306   1.928       .  S
C2300      C2301   1.409       .  A
C2301      C2302   1.403       .  A
C2301     Br2308   1.928       .  S
C2302      C2303   1.405       .  A
C2302     Br2307   1.930       .  S
C2303      C2304   1.409       .  A
C2304     Br2305   1.929       .  S
C2309      C2310   1.413       .  A
C2309      C2314   1.406       .  A
C2309     Br2316   1.933       .  S
C2310      C2311   1.412       .  A
C2311      C2312   1.407       .  A
C2311     Br2318   1.931       .  S
C2312      C2313   1.408       .  A
C2312     Br2317   1.930       .  S
C2313      C2314   1.407       .  A
C2314     Br2315   1.930       .  S
C2319      C2320   1.427       .  A
C2319      C2324   1.409       .  A
C2319     Br2326   1.940       .  S
C2320      C2321   1.427       .  A
C2321      C2322   1.411       .  A
C2321     Br2328   1.936       .  S
C2322      C2323   1.407       .  A
C2322     Br2327   1.935       .  S
C2323      C2324   1.409       .  A
C2324     Br2325   1.939       .  S
C2329      C2330   1.416       .  A
C2329      C2334   1.408       .  A
C2329     Br2336   1.935       .  S
C2330      C2331   1.416       .  A
C2331      C2332   1.413       .  A
C2331     Br2338   1.931       .  S
C2332      C2333   1.411       .  A
C2332     Br2337   1.930       .  S
C2333      C2334   1.411       .  A
C2334     Br2335   1.934       .  S
C2339      C2340   1.408       .  A
C2339      C2344   1.404       .  A
C2339     Br2346   1.932       .  S
C2340      C2341   1.410       .  A
C2341      C2342   1.411       .  A
C2341     Br2348   1.930       .  S
C2342      C2343   1.412       .  A
C2342     Br2347   1.929       .  S
C2343      C2344   1.410       .  A
C2344     Br2345   1.931       .  S
C2349      C2350   1.409       .  A
C2349      C2354   1.410       .  A
C2349     Br2356   1.929       .  S
C2350      C2351   1.405       .  A
C2351      C2352   1.406       .  A
C2351     Br2358   1.930       .  S
C2352      C2353   1.414       .  A
C2352     Br2357   1.932       .  S
C2353      C2354   1.413       .  A
C2354     Br2355   1.929       .  S
C2359      C2360   1.414       .  A
C2359      C2364   1.407       .  A
C2359     Br2366   1.935       .  S
C2360      C2361   1.414       .  A
C2361      C2362   1.414       .  A
C2361     Br2368   1.930       .  S
C2362      C2363   1.414       .  A
C2362     Br2367   1.931       .  S
C2363      C2364   1.411       .  A
C2364     Br2365   1.934       .  S
C2369      C2370   1.411       .  A
C2369      C2374   1.407       .  A
C2369     Br2376   1.933       .  S
C2370      C2371   1.410       .  A
C2371      C2372   1.411       .  A
C2371     Br2378   1.930       .  S
C2372      C2373   1.413       .  A
C2372     Br2377   1.931       .  S
C2373      C2374   1.412       .  A
C2374     Br2375   1.933       .  S
C2379      C2380   1.410       .  A
C2379      C2384   1.406       .  A
C2379     Br2386   1.932       .  S
C2380      C2381   1.412       .  A
C2381      C2382   1.410       .  A
C2381     Br2388   1.931       .  S
C2382      C2383   1.412       .  A
C2382     Br2387   1.931       .  S
C2383      C2384   1.411       .  A
C2384     Br2385   1.933       .  S
C2389      C2390   1.411       .  A
C2389      C2394   1.407       .  A
C2389     Br2396   1.929       .  S
C2390      C2391   1.411       .  A
C2391      C2392   1.408       .  A
C2391     Br2398   1.930       .  S
C2392      C2393   1.408       .  A
C2392     Br2397   1.929       .  S
C2393      C2394   1.407       .  A
C2394     Br2395   1.929       .  S
C2399      C2400   1.411       .  A
C2399      C2404   1.406       .  A
C2399     Br2406   1.933       .  S
C2400      C2401   1.413       .  A
C2401      C2402   1.414       .  A
C2401     Br2408   1.929       .  S
C2402      C2403   1.412       .  A
C2402     Br2407   1.929       .  S
C2403      C2404   1.410       .  A
C2404     Br2405   1.932       .  S
C2409      C2410   1.413       .  A
C2409      C2414   1.409       .  A
C2409     Br2416   1.934       .  S
C2410      C2411   1.415       .  A
C2411      C2412   1.411       .  A
C2411     Br2418   1.930       .  S
C2412      C2413   1.411       .  A
C2412     Br2417   1.931       .  S
C2413      C2414   1.412       .  A
C2414     Br2415   1.932       .  S
C2419      C2420   1.427       .  A
C2419      C2424   1.404       .  A
C2419     Br2426   1.943       .  S
C2420      C2421   1.421       .  A
C2421      C2422   1.415       .  A
C2421     Br2428   1.931       .  S
C2422      C2423   1.408       .  A
C2422     Br2427   1.930       .  S
C2423      C2424   1.405       .  A
C2424     Br2425   1.938       .  S
C2429      C2430   1.417       .  A
C2429      C2434   1.404       .  A
C2429     Br2436   1.936       .  S
C2430      C2431   1.412       .  A
C2431      C2432   1.411       .  A
C2431     Br2438   1.930       .  S
C2432      C2433   1.410       .  A
C2432     Br2437   1.929       .  S
C2433      C2434   1.406       .  A
C2434     Br2435   1.934       .  S
C2439      C2440   1.406       .  A
C2439      C2444   1.405       .  A
C2439     Br2446   1.923       .  S
C2440      C2441   1.410       .  A
C2441      C2442   1.410       .  A
C2441     Br2448   1.929       .  S
C2442      C2443   1.410       .  A
C2442     Br2447   1.927       .  S
C2443      C2444   1.411       .  A
C2444     Br2445   1.932       .  S
C2449      C2450   1.412       .  A
C2449      C2454   1.410       .  A
C2449     Br2456   1.931       .  S
C2450      C2451   1.408       .  A
C2451      C2452   1.407       .  A
C2451     Br2458   1.929       .  S
C2452      C2453   1.411       .  A
C2452     Br2457   1.931       .  S
C2453      C2454   1.411       .  A
C2454     Br2455   1.930       .  S
C2459      C2460   1.412       .  A
C2459      C2464   1.409       .  A
C2459     Br2466   1.932       .  S
C2460      C2461   1.414       .  A
C2461      C2462   1.405       .  A
C2461     Br2468   1.936       .  S
C2462      C2463   1.411       .  A
C2462     Br2467   1.934       .  S
C2463      C2464   1.414       .  A
C2464     Br2465   1.932       .  S
C2469      C2470   1.412       .  A
C2469      C2474   1.412       .  A
C2469     Br2476   1.931       .  S
C2470      C2471   1.412       .  A
C2471      C2472   1.405       .  A
C2471     Br2478   1.935       .  S
C2472      C2473   1.413       .  A
C2472     Br2477   1.934       .  S
C2473      C2474   1.415       .  A
C2474     Br2475   1.931       .  S
C2479      C2480   1.409       .  A
C2479      C2484   1.407       .  A
C2479     Br2486   1.930       .  S
C2480      C2481   1.411       .  A
C2481      C2482   1.413       .  A
C2481     Br2488   1.929       .  S
C2482      C2483   1.411       .  A
C2482     Br2487   1.928       .  S
C2483      C2484   1.411       .  A
C2484     Br2485   1.931       .  S
C2489      C2490   1.414       .  A
C2489      C2494   1.405       .  A
C2489     Br2496   1.933       .  S
C2490      C2491   1.417       .  A
C2491      C2492   1.413       .  A
C2491     Br2498   1.932       .  S
C2492      C2493   1.409       .  A
C2492     Br2497   1.929       .  S
C2493      C2494   1.409       .  A
C2494     Br2495   1.934       .  S
C2499      C2500   1.409       .  A
C2499      C2504   1.407       .  A
C2499     Br2506   1.930       .  S
C2500      C2501   1.408       .  A
C2501      C2502   1.408       .  A
C2501     Br2508   1.928       .  S
C2502      C2503   1.407       .  A
C2502     Br2507   1.925       .  S
C2503      C2504   1.407       .  A
C2504     Br2505   1.924       .  S
C2509      C2510   1.414       .  A
C2509      C2514   1.410       .  A
C2509     Br2516   1.927       .  S
C2510      C2511   1.416       .  A
C2511      C2512   1.405       .  A
C2511     Br2518   1.935       .  S
C2512      C2513   1.407       .  A
C2512     Br2517   1.933       .  S
C2513      C2514   1.408       .  A
C2514     Br2515   1.930       .  S
C2519      C2520   1.421       .  A
C2519      C2524   1.411       .  A
C2519     Br2526   1.932       .  S
C2520      C2521   1.424       .  A
C2521      C2522   1.405       .  A
C2521     Br2528   1.938       .  S
C2522      C2523   1.404       .  A
C2522     Br2527   1.936       .  S
C2523      C2524   1.407       .  A
C2524     Br2525   1.933       .  S
C2529      C2530   1.411       .  A
C2529      C2534   1.407       .  A
C2529     Br2536   1.931       .  S
C2530      C2531   1.411       .  A
C2531      C2532   1.410       .  A
C2531     Br2538   1.929       .  S
C2532      C2533   1.409       .  A
C2532     Br2537   1.929       .  S
C2533      C2534   1.407       .  A
C2534     Br2535   1.930       .  S
C2539      C2540   1.412       .  A
C2539      C2544   1.410       .  A
C2539     Br2546   1.932       .  S
C2540      C2541   1.410       .  A
C2541      C2542   1.406       .  A
C2541     Br2548   1.933       .  S
C2542      C2543   1.413       .  A
C2542     Br2547   1.933       .  S
C2543      C2544   1.411       .  A
C2544     Br2545   1.930       .  S
C2549      C2550   1.407       .  A
C2549      C2554   1.404       .  A
C2549     Br2556   1.931       .  S
C2550      C2551   1.408       .  A
C2551      C2552   1.409       .  A
C2551     Br2558   1.929       .  S
C2552      C2553   1.412       .  A
C2552     Br2557   1.929       .  S
C2553      C2554   1.411       .  A
C2554     Br2555   1.932       .  S
C2559      C2560   1.408       .  A
C2559      C2564   1.409       .  A
C2559     Br2566   1.929       .  S
C2560      C2561   1.407       .  A
C2561      C2562   1.406       .  A
C2561     Br2568   1.931       .  S
C2562      C2563   1.413       .  A
C2562     Br2567   1.932       .  S
C2563      C2564   1.413       .  A
C2564     Br2565   1.931       .  S
