geometry optimzed in LAMMPS
_audit_creation_date              2020-11-30 
_audit_creation_method            'lammps2cif' 
_symmetry_space_group_name_H-M    'P1' 
_symmetry_Int_Tables_number       1 
_symmetry_cell_setting            triclinic 
loop_ 
_symmetry_equiv_pos_as_xyz 
  x,y,z 
_cell_length_a                    29.7281652 
_cell_length_b                    33.04307576072661 
_cell_length_c                    31.621362865562542 
_cell_angle_alpha                 89.62289072577222 
_cell_angle_beta                  90.45115340342718 
_cell_angle_gamma                 89.6123859234003 
loop_ 
_atom_site_label 
_atom_site_type_symbol 
_atom_site_fract_x 
_atom_site_fract_y 
_atom_site_fract_z 
_atom_site_charge 
C1          C  0.37190540  0.40165183  0.09868894     0.42300
N2          N  0.36539554  0.45711590  0.06306160     0.01200
C3          C  0.17163354  0.57728949  0.06033215    -0.06700
H4          H  0.13302634  0.43789131  0.05420559     0.06700
C5          C  0.23359717  0.43257804  0.90085928    -0.07100
Co6        Co  0.28322972  0.50438433  0.08613319     0.74200
N7          N  0.20004869  0.46316018  0.05505124    -0.26200
Co8        Co  0.20387021  0.50502121  0.00409757     0.74100
C9          C  0.18878621  0.41706109  0.90922952     0.42400
N10         N  0.34104778  0.45533636  0.93938898     0.00800
N11         N  0.20705925  0.45992838  0.95749789     0.00900
N12         N  0.22539867  0.57595758  0.11100540    -0.47100
H13         H  0.30735691  0.41578796  0.13595519     0.06700
N14         N  0.23201361  0.46226000  0.08437045     0.01200
N15         N  0.20908574  0.54739977  0.95376643     0.00900
C16         C  0.19308112  0.58698043  0.90101562     0.42500
N17         N  0.37120994  0.45514058  0.97011494    -0.25700
C18         C  0.33735345  0.58160007  0.10945136    -0.06600
N19         N  0.39005057  0.42384236  0.06723607    -0.46800
N20         N  0.17659649  0.57065263  0.93725866    -0.47000
C21         C  0.37687874  0.60199207  0.09278407     0.42300
N22         N  0.23442104  0.54980800  0.08083056     0.01200
N23         N  0.37412188  0.54393223  0.96806286    -0.25700
N24         N  0.33136526  0.45815381  0.08944523    -0.26200
N25         N  0.34403952  0.54548246  0.93734516     0.00800
H26         H  0.42702558  0.58382845  0.98751024     0.06700
H27         H  0.25915843  0.57172990  0.86816471     0.06700
N28         N  0.20341913  0.54980115  0.05060731    -0.26300
N29         N  0.24178464  0.45907869  0.93162580    -0.25900
N30         N  0.36791746  0.54565683  0.06054656     0.01200
C31         C  0.18092202  0.42388315  0.11040118     0.42600
C32         C  0.39480906  0.42043468  0.96845199    -0.07100
N33         N  0.24458503  0.54605010  0.92894515    -0.25900
H34         H  0.25416517  0.42851224  0.87312527     0.06700
N35         N  0.22175530  0.43966782  0.11742357    -0.47100
H36         H  0.42031426  0.41059141  0.99084570     0.06700
C37         C  0.38266455  0.60027566  0.92980695     0.42400
C38         C  0.33260232  0.42441919  0.11329229    -0.06600
Co39       Co  0.37096167  0.50036162  0.01544588     0.73800
N40         N  0.34124103  0.42130098  0.91755230    -0.46800
C41         C  0.18679585  0.59509942  0.10029700     0.42700
N42         N  0.39365074  0.57812679  0.06226179    -0.46800
Co43       Co  0.29337362  0.50154534  0.93375107     0.73900
C44         C  0.23797948  0.57055310  0.89580389    -0.07100
C45         C  0.16576696  0.44015092  0.06911015    -0.06700
N46         N  0.33416059  0.54731320  0.08720607    -0.26200
N47         N  0.17385388  0.43626745  0.94428987    -0.47000
H48         H  0.14016668  0.58178812  0.04348557     0.06700
C49         C  0.40064605  0.57641273  0.96526708    -0.07100
Cl50       Cl  0.28740109  0.50277890  0.00986660    -0.50100
C51         C  0.37479992  0.39804777  0.93358645     0.42400
H52         H  0.31300942  0.59255291  0.13194027     0.06600
N53         N  0.34750989  0.57895975  0.91417329    -0.46800
C54         C  0.80207400  0.40662086  0.10306378     0.42300
N55         N  0.78757250  0.45043069  0.05369119     0.01200
C56         C  0.60404213  0.58143789  0.04671765    -0.06700
H57         H  0.57157626  0.41928475  0.01695900     0.06700
C58         C  0.66182469  0.43002728  0.89473462    -0.07100
Co59       Co  0.70492308  0.49813186  0.07652619     0.74200
N60         N  0.62400637  0.45915758  0.03863850    -0.26200
Co61       Co  0.62876786  0.50553622  0.99391979     0.74100
C62         C  0.62008809  0.41041739  0.90771542     0.42400
N63         N  0.76494232  0.45719125  0.92657311     0.00800
N64         N  0.63118767  0.46346882  0.94545806     0.00900
N65         N  0.65616064  0.57702744  0.09896138    -0.47100
H66         H  0.73676549  0.42218871  0.13749130     0.06700
N67         N  0.65324831  0.45649255  0.07007699     0.01200
N68         N  0.63660758  0.55175796  0.94958708     0.00900
C69         C  0.63342318  0.60892940  0.91713823     0.42500
N70         N  0.79550308  0.45396684  0.95698641    -0.25700
C71         C  0.76536798  0.56370138  0.11363029    -0.06600
N72         N  0.81891132  0.42486349  0.06805022    -0.46800
N73         N  0.61351068  0.58615651  0.94714209    -0.47000
C74         C  0.81095310  0.57776316  0.10732788     0.42300
N75         N  0.65826268  0.54543186  0.07344959     0.01200
N76         N  0.80140618  0.54062069  0.95992194    -0.25700
N77         N  0.75231778  0.45169680  0.07881942    -0.26200
N78         N  0.77007630  0.54459310  0.93031402     0.00800
H79         H  0.86925116  0.56346302  0.96396884     0.06700
H80         H  0.69746384  0.59494459  0.87974225     0.06700
N81         N  0.62866889  0.54765778  0.04229710    -0.26300
N82         N  0.66573426  0.46238754  0.91974248    -0.25900
N83         N  0.79300407  0.53761448  0.05673435     0.01200
C84         C  0.61392324  0.40247778  0.07576441     0.42600
C85         C  0.82631512  0.42621677  0.94516670    -0.07100
N86         N  0.67117753  0.55107824  0.92376984    -0.25900
H87         H  0.68683552  0.42034100  0.87236174     0.06700
N88         N  0.64895350  0.42280473  0.09246082    -0.47100
H89         H  0.85683775  0.41895670  0.96243526     0.06700
C90         C  0.82316348  0.58321848  0.90836938     0.42400
C91         C  0.75794916  0.42460286  0.10994405    -0.06600
Co92       Co  0.79539399  0.49554926  0.00702923     0.73800
N93         N  0.77321027  0.43323580  0.89432939    -0.46800
C94         C  0.62217364  0.60077206  0.08444916     0.42700
N95         N  0.82668372  0.55949338  0.07206683    -0.46800
Co96       Co  0.71774774  0.50384800  0.92452540     0.73900
C97         C  0.67185571  0.58587588  0.90190706    -0.07100
C98         C  0.59729187  0.42659811  0.03993244    -0.06700
N99         N  0.75745951  0.53868375  0.08156945    -0.26200
N100        N  0.60344195  0.43286483  0.93963712    -0.47000
H101        H  0.57843965  0.59225172  0.02489984     0.06700
C102        C  0.83669335  0.56354165  0.94846657    -0.07100
Cl103      Cl  0.71206789  0.50069216  0.00053335    -0.50100
C104        C  0.81109749  0.41232883  0.90329508     0.42400
H105        H  0.74396021  0.56751896  0.14084182     0.06600
N106        N  0.78190983  0.56917983  0.89937428    -0.46800
C107        C  0.39822461  0.09883051  0.11258772     0.42300
N108        N  0.43849272  0.04542833  0.12336127     0.01200
C109        C  0.43774282  0.94256682  0.31660558    -0.06700
H110        H  0.45597045  0.09065561  0.33183049     0.06700
C111        C  0.61593034  0.07380975  0.24434571    -0.07100
Co112      Co  0.41398480  0.00370159  0.20390958     0.74200
N113        N  0.44966050  0.05283526  0.27638948    -0.26200
Co114      Co  0.50172509  0.00888166  0.27777983     0.74100
C115        C  0.61010462  0.09038306  0.28642774     0.42400
N116        N  0.57114565  0.04682905  0.14479610     0.00800
N117        N  0.55374103  0.05185662  0.27117704     0.00900
N118        N  0.38543845  0.93868263  0.26484631    -0.47100
H119        H  0.35667841  0.08697885  0.17215407     0.06700
N120        N  0.41759589  0.05027383  0.24731743     0.01200
N121        N  0.55315449  0.96454427  0.27629832     0.00900
C122        C  0.60633922  0.92324860  0.29492925     0.42500
N123        N  0.53762941  0.04571906  0.11736344    -0.25700
C124        C  0.38754425  0.92354511  0.15813325    -0.06600
N125        N  0.43346813  0.07716318  0.09799419    -0.46800
N126        N  0.56832644  0.94196020  0.30835850    -0.47000
C127        C  0.40305319  0.90238600  0.12035541     0.42300
N128        N  0.41869841  0.96273807  0.25380188     0.01200
N129        N  0.53862464  0.95701868  0.12156446    -0.25700
N130        N  0.40965129  0.04558912  0.15470850    -0.26200
N131        N  0.57129752  0.95733789  0.14995702     0.00800
H132        H  0.51791949  0.91270304  0.07553373     0.06700
H133        H  0.64326821  0.93274773  0.23230945     0.06700
N134        N  0.45013953  0.96568168  0.28340183    -0.26300
N135        N  0.58057704  0.04978458  0.23813013    -0.25900
N136        N  0.43992868  0.95749344  0.12741472     0.01200
C137        C  0.39529458  0.09929904  0.28626540     0.42600
C138        C  0.53955943  0.07848498  0.09232438    -0.07100
N139        N  0.58024393  0.96292374  0.24337936    -0.25900
H140        H  0.64567389  0.07427875  0.22487560     0.06700
N141        N  0.38499389  0.07697000  0.25232320    -0.47100
H142        H  0.51492092  0.08681777  0.06848368     0.06700
C143        C  0.57913845  0.90043413  0.11839859     0.42400
C144        C  0.38236490  0.07775091  0.15015901    -0.06600
Co145      Co  0.48874443  0.00151141  0.12121696     0.73800
N146        N  0.59577473  0.07982756  0.14059879    -0.46800
C147        C  0.39503583  0.92402067  0.30365203     0.42700
N148        N  0.43576674  0.92520493  0.10340754    -0.46800
Co149      Co  0.57635616  0.00417178  0.19359440     0.73900
C150        C  0.61394095  0.93711072  0.25184088    -0.07100
C151        C  0.43806948  0.08278904  0.30316757    -0.06700
N152        N  0.41233510  0.95727052  0.15979691    -0.26200
N153        N  0.57118265  0.07479772  0.30152978    -0.47000
H154        H  0.45460684  0.94133085  0.34702283     0.06700
C155        C  0.54142741  0.92256521  0.09950088    -0.07100
Cl156      Cl  0.49522516  0.00456817  0.19932926    -0.50100
C157        C  0.57831393  0.10112316  0.10763383     0.42400
H158        H  0.36329760  0.91427452  0.18150881     0.06600
N159        N  0.59562994  0.92359305  0.14984923    -0.46800
C160        C  0.38931823  0.08466873  0.71679947     0.42300
N161        N  0.44445550  0.04504019  0.73372640     0.01200
C162        C  0.46027215  0.92715013  0.91548493    -0.06700
H163        H  0.46880514  0.09090692  0.93914428     0.06700
C164        C  0.60641068  0.08964429  0.85600996    -0.07100
Co165      Co  0.42264583  0.00161832  0.81465766     0.74200
N166        N  0.45467976  0.04860037  0.88909084    -0.26200
Co167      Co  0.50759590  0.00729147  0.88886101     0.74100
C168        C  0.58860417  0.11043335  0.89279326     0.42400
N169        N  0.57849206  0.05350422  0.75916628     0.00800
N170        N  0.55371307  0.05431475  0.88448544     0.00900
N171        N  0.40742568  0.92300862  0.86421717    -0.47100
H172        H  0.35254543  0.07108999  0.77853312     0.06700
N173        N  0.42255456  0.04683352  0.86025225     0.01200
N174        N  0.56019596  0.96559710  0.88611789     0.00900
C175        C  0.60070880  0.91173295  0.89453091     0.42500
N176        N  0.54776590  0.05010762  0.72896187    -0.25700
C177        C  0.39029139  0.93107556  0.76237004    -0.06600
N178        N  0.42796003  0.06780047  0.70233184    -0.46800
N179        N  0.56538366  0.93276156  0.90991974    -0.47000
C180        C  0.39835731  0.91480873  0.72068731     0.42300
N181        N  0.42955322  0.95760518  0.86187477     0.01200
N182        N  0.55410406  0.96294913  0.73201591    -0.25700
N183        N  0.41717122  0.04426117  0.76654881    -0.26200
N184        N  0.58552634  0.96635542  0.76154305     0.00800
H185        H  0.55126932  0.92791045  0.67462073     0.06700
H186        H  0.64300456  0.92790753  0.83588029     0.06700
N187        N  0.46146676  0.96027332  0.89080132    -0.26300
N188        N  0.58271029  0.05547303  0.85322594    -0.25900
N189        N  0.45014689  0.95788090  0.73584016     0.01200
C190        C  0.40638342  0.09951143  0.89647147     0.42600
C191        C  0.55999876  0.07422484  0.69653117    -0.07100
N192        N  0.58933002  0.96719242  0.85505234    -0.25900
H193        H  0.63134551  0.09979864  0.83368411     0.06700
N194        N  0.39347198  0.07722892  0.86292503    -0.47100
H195        H  0.54430268  0.07469380  0.66555850     0.06700
C196        C  0.61384293  0.92273992  0.71879366     0.42400
C197        C  0.38217651  0.06877742  0.75903579    -0.06600
Co198      Co  0.49901144  0.00386272  0.73162445     0.73800
N199        N  0.61126665  0.07841260  0.74888224    -0.46800
C200        C  0.42452486  0.90228633  0.89771572     0.42700
N201        N  0.43538732  0.93362966  0.70530062    -0.46800
Co202      Co  0.58456265  0.01081654  0.80744534     0.73900
C203        C  0.61690322  0.93512059  0.85819602    -0.07100
C204        C  0.44722174  0.08079187  0.91369179    -0.06700
N205        N  0.42301478  0.95761784  0.76872212    -0.26200
N206        N  0.55527501  0.08715205  0.90820198    -0.47000
H207        H  0.48354015  0.92005106  0.94082582     0.06700
C208        C  0.56873288  0.93559400  0.70352887    -0.07100
Cl209      Cl  0.50344040  0.00595427  0.81043351    -0.50100
C210        C  0.60219480  0.09350242  0.71009181     0.42400
H211        H  0.36086223  0.92799914  0.78200179     0.06600
N212        N  0.62103234  0.94334421  0.75468077    -0.46800
C213        C  0.09119507  0.37349453  0.40898868     0.42300
N214        N  0.05166898  0.36329639  0.46482281     0.01200
C215        C  0.06014160  0.17868662  0.57365924    -0.06700
H216        H  0.05075024  0.16133020  0.41994432     0.06700
C217        C  0.88634068  0.23956693  0.42447813    -0.07100
Co218      Co  0.07928673  0.28690089  0.51011856     0.74200
N219        N  0.05146511  0.21520555  0.45838784    -0.26200
Co220      Co  0.99696060  0.21229889  0.50137717     0.74100
C221        C  0.89662009  0.20011757  0.40705003     0.42400
N222        N  0.92148078  0.33546328  0.45537475     0.00800
N223        N  0.94733205  0.21560675  0.45330165     0.00900
N224        N  0.11042813  0.22913995  0.57801019    -0.47100
H225        H  0.13470335  0.31720961  0.42258996     0.06700
N226        N  0.08137812  0.24441810  0.46234223     0.01200
N227        N  0.94285389  0.21215772  0.54476808     0.00900
C228        C  0.88819283  0.19427463  0.58531158     0.42500
N229        N  0.95252417  0.36369770  0.45789443    -0.25700
C230        C  0.09667472  0.32863376  0.59648071    -0.06600
N231        N  0.05565558  0.38724087  0.43121070    -0.46800
N232        N  0.92768882  0.18159245  0.56822675    -0.47000
C233        C  0.07610942  0.36150248  0.62020659     0.42300
N234        N  0.07630254  0.23929396  0.55308013     0.01200
N235        N  0.94676934  0.36027095  0.55121554    -0.25700
N236        N  0.08173757  0.33384844  0.46556805    -0.26200
N237        N  0.91616055  0.33172775  0.54880963     0.00800
H238        H  0.96255174  0.40412060  0.59942970     0.06700
H239        H  0.84901888  0.25257334  0.57106754     0.06700
N240        N  0.04635191  0.21010701  0.54938459    -0.26300
N241        N  0.91859713  0.24627013  0.45310803    -0.25900
N242        N  0.04549034  0.35855081  0.55835180     0.01200
C243        C  0.11041485  0.20603976  0.41492486     0.42600
C244        C  0.95037376  0.38638021  0.42241148    -0.07100
N245        N  0.91411586  0.24283426  0.54393840    -0.25900
H246        H  0.85597809  0.25748835  0.42064751     0.06700
N247        N  0.11637062  0.23988064  0.43749549    -0.47100
H248        H  0.97290042  0.41063179  0.41405368     0.06700
C249        C  0.90427954  0.35999934  0.60856191     0.42400
C250        C  0.10836246  0.33797814  0.43178762    -0.06600
Co251      Co  0.99905016  0.36292976  0.50803838     0.73800
N252        N  0.89868279  0.33678089  0.41927982    -0.46800
C253        C  0.10279183  0.19158668  0.59279705     0.42700
N254        N  0.04462894  0.37867768  0.59459682    -0.46800
Co255      Co  0.91711105  0.28951939  0.50028886     0.73900
C256        C  0.87947879  0.23463111  0.56897371    -0.07100
C257        C  0.06680280  0.18931311  0.42873904    -0.06700
N258        N  0.07530512  0.32880821  0.55897450    -0.26200
N259        N  0.93419386  0.18630255  0.42735919    -0.47000
H260        H  0.04542947  0.14884059  0.57351194     0.06700
C261        C  0.94105969  0.38052052  0.58742955    -0.07100
Cl262      Cl  0.99814231  0.28769713  0.50489613    -0.50100
C263        C  0.91445441  0.36846916  0.39706257     0.42400
H264        H  0.12133244  0.30650485  0.60699197     0.06600
N265        N  0.89050167  0.33006497  0.58283093    -0.46800
C266        C  0.10774785  0.81412882  0.41755341     0.42300
N267        N  0.05470135  0.79301919  0.45850722     0.01200
C268        C  0.06243919  0.61629530  0.57823235    -0.06700
H269        H  0.02633374  0.59988116  0.40496144     0.06700
C270        C  0.89493666  0.67390017  0.42344556    -0.07100
Co271      Co  0.08439651  0.71443930  0.49834125     0.74200
N272        N  0.04820792  0.64371030  0.45118475    -0.26200
Co273      Co  0.00241410  0.64114705  0.50095611     0.74100
C274        C  0.91102659  0.63893688  0.40004704     0.42400
N275        N  0.92152234  0.76438795  0.46243594     0.00800
N276        N  0.94978843  0.64460238  0.45715590     0.00900
N277        N  0.11311400  0.66666777  0.57697936    -0.47100
H278        H  0.14748102  0.75518727  0.42616640     0.06700
N279        N  0.07876860  0.67242423  0.44988966     0.01200
N280        N  0.95613694  0.64225328  0.55091415     0.00900
C281        C  0.92218372  0.63341542  0.61039797     0.42500
N282        N  0.95082261  0.79435171  0.46345116    -0.25700
C283        C  0.12353805  0.76138026  0.57045128    -0.06600
N284        N  0.06915322  0.82526058  0.43722924    -0.46800
N285        N  0.95569795  0.61922285  0.58558371    -0.47000
C286        C  0.11651332  0.79989146  0.59116424     0.42300
N287        N  0.08615256  0.66823839  0.54344965     0.01200
N288        N  0.95565542  0.78986748  0.55394776    -0.25700
N289        N  0.08308278  0.76222052  0.45552187    -0.26200
N290        N  0.92573732  0.76048237  0.55342965     0.00800
H291        H  0.95761755  0.84656638  0.58743296     0.06700
H292        H  0.87613530  0.68843683  0.59814776     0.06700
N293        N  0.05534160  0.63986794  0.54411879    -0.26300
N294        N  0.92081153  0.67488748  0.45835273    -0.25900
N295        N  0.06012514  0.78746765  0.54975123     0.01200
C296        C  0.08268179  0.64437602  0.38902872     0.42600
C297        C  0.93334444  0.82556489  0.44081045    -0.07100
N298        N  0.92558955  0.67132626  0.55191484    -0.25900
H299        H  0.86933464  0.69583727  0.41465269     0.06700
N300        N  0.09973812  0.67417023  0.41315526    -0.47100
H301        H  0.94704579  0.85578480  0.43956005     0.06700
C302        C  0.89889502  0.80202346  0.59907339     0.42400
C303        C  0.11675734  0.77246884  0.42998108    -0.06600
Co304      Co  0.00543613  0.79215205  0.50656063     0.73800
N305        N  0.88489132  0.77346627  0.44052304    -0.46800
C306        C  0.10055734  0.63441194  0.60030344     0.42700
N307        N  0.07669378  0.81507256  0.57612313    -0.46800
Co308      Co  0.92294802  0.71746022  0.50637461     0.73900
C309        C  0.90207333  0.66776647  0.58775545    -0.07100
C310        C  0.04907281  0.62359787  0.41438923    -0.06700
N311        N  0.08811329  0.75662419  0.54548345    -0.26200
N312        N  0.94542019  0.62259747  0.42249798    -0.47000
H313        H  0.04149533  0.59144194  0.58790954     0.06700
C314        C  0.94173457  0.81768239  0.58220529    -0.07100
Cl315      Cl  0.00378344  0.71653425  0.50303310    -0.50100
C316        C  0.88918901  0.81146297  0.42588344     0.42400
H317        H  0.15328157  0.74242772  0.56942837     0.06600
N318        N  0.89202732  0.76669101  0.57942305    -0.46800
C319        C  0.80670720  0.87651262  0.63263108    -0.11600
C320        C  0.77693698  0.84990683  0.65284544     0.15000
C321        C  0.78938443  0.80883266  0.65747386     0.01900
C322        C  0.83132342  0.79568380  0.64308277    -0.15900
C323        C  0.86086849  0.82177041  0.62169766    -0.10700
C324        C  0.84815127  0.86288133  0.61636692     0.08600
C325        C  0.73356887  0.86597878  0.66932029     0.09600
S326        S  0.75254155  0.77107100  0.67952952    -0.25000
H327        H  0.83994778  0.76389996  0.64659101     0.19900
S328        S  0.88221952  0.89776112  0.58660089    -0.30700
H329        H  0.79693904  0.90796470  0.62904035     0.10200
C330        C  0.72513939  0.86761641  0.71303263     0.03400
C331        C  0.68428813  0.88371797  0.72724457    -0.13000
C332        C  0.65156314  0.89965706  0.69911052    -0.08700
C333        C  0.65987428  0.89731125  0.65508678     0.06900
C334        C  0.70047984  0.88026010  0.64084320    -0.13800
S335        S  0.76745558  0.85158213  0.75109847    -0.30700
H336        H  0.67851592  0.88529339  0.76097016     0.11100
S337        S  0.62173636  0.91664206  0.61528660    -0.27800
H338        H  0.70683357  0.87891663  0.60717016     0.08300
H339        H  0.85172504  0.93049390  0.58652918     0.26800
H340        H  0.74124707  0.85672810  0.78754734     0.21600
H341        H  0.61594510  0.95435340  0.63459267     0.26900
H342        H  0.71195762  0.79001657  0.66733543     0.15700
C343        C  0.20127507  0.87941216  0.62896669    -0.11600
C344        C  0.23756992  0.85378916  0.64040764     0.15000
C345        C  0.23144432  0.81157332  0.63842097     0.01900
C346        C  0.18952215  0.79612685  0.62798258    -0.15900
C347        C  0.15402275  0.82105183  0.61339501    -0.10700
C348        C  0.15995939  0.86352557  0.61462653     0.08600
C349        C  0.27983818  0.87041899  0.65893806     0.09600
S350        S  0.27658117  0.77532141  0.64624701    -0.25000
H351        H  0.18585868  0.76357216  0.62890371     0.19900
S352        S  0.11708534  0.89876012  0.59754648    -0.30700
H353        H  0.20510638  0.91191101  0.63121483     0.10200
C354        C  0.30806247  0.89776280  0.63725176     0.03400
C355        C  0.34870350  0.91025817  0.65645048    -0.13000
C356        C  0.36226492  0.89477320  0.69614376    -0.08700
C357        C  0.33506470  0.86563368  0.71620393     0.06900
C358        C  0.29363290  0.85546639  0.69860561    -0.13800
S359        S  0.29296559  0.91612360  0.58509322    -0.30700
H360        H  0.36919315  0.93293897  0.64119392     0.11100
S361        S  0.35171381  0.83952468  0.76419041    -0.27800
H362        H  0.27252105  0.83422303  0.71541361     0.08300
H363        H  0.08295705  0.87966596  0.62072532     0.26800
H364        H  0.33013429  0.94173352  0.57983494     0.21600
H365        H  0.39823182  0.84194891  0.75678859     0.26900
H366        H  0.31049475  0.80038369  0.62999316     0.15700
C367        C  0.77397371  0.14507710  0.58776914    -0.11600
C368        C  0.76847636  0.13891497  0.63124322     0.15000
C369        C  0.80548706  0.14527950  0.65877800     0.01900
C370        C  0.84613849  0.15998973  0.64251264    -0.15900
C371        C  0.85099840  0.16788686  0.59916729    -0.10700
C372        C  0.81458224  0.15941918  0.57150528     0.08600
C373        C  0.72310659  0.12820374  0.64706935     0.09600
S374        S  0.80192966  0.13796458  0.71520913    -0.25000
H375        H  0.87330659  0.16738465  0.66412066     0.19900
S376        S  0.81637461  0.16965249  0.51549820    -0.30700
H377        H  0.74580807  0.14012816  0.56648367     0.10200
C378        C  0.69259628  0.15807259  0.66108499     0.03400
C379        C  0.65139404  0.14636066  0.67895908    -0.13000
C380        C  0.63997645  0.10536362  0.68254281    -0.08700
C381        C  0.66980250  0.07568012  0.66680120     0.06900
C382        C  0.71073934  0.08741424  0.64875742    -0.13800
S383        S  0.70686384  0.21099452  0.65734853    -0.30700
H384        H  0.62891681  0.16899430  0.69181188     0.11100
S385        S  0.65718595  0.02255598  0.67233702    -0.27800
H386        H  0.73409891  0.06473538  0.63744661     0.08300
H387        H  0.86294087  0.16358283  0.51135790     0.26800
H388        H  0.66495202  0.22617473  0.67048772     0.21600
H389        H  0.69795235  0.00754726  0.65625707     0.26900
H390        H  0.77024684  0.10664509  0.71403659     0.15700
C391        C  0.21772421  0.14208905  0.59476129    -0.11600
C392        C  0.22154835  0.13036962  0.63733992     0.15000
C393        C  0.18336258  0.13401528  0.66368404     0.01900
C394        C  0.14367608  0.15179419  0.64771786    -0.15900
C395        C  0.14076334  0.16515674  0.60567933    -0.10700
C396        C  0.17775388  0.15876885  0.57853473     0.08600
C397        C  0.26693440  0.11957967  0.65446317     0.09600
S398        S  0.18358942  0.11787222  0.71829004    -0.25000
H399        H  0.11551262  0.15665826  0.66867466     0.19900
S400        S  0.17708038  0.17325418  0.52337065    -0.30700
H401        H  0.24669021  0.13966536  0.57431964     0.10200
C402        C  0.29251645  0.08661791  0.63913695     0.03400
C403        C  0.33500132  0.07796475  0.65721628    -0.13000
C404        C  0.35201960  0.10119734  0.69069999    -0.08700
C405        C  0.32698871  0.13488418  0.70478994     0.06900
C406        C  0.28523605  0.14390003  0.68635234    -0.13800
S407        S  0.26969217  0.05353969  0.59919362    -0.30700
H408        H  0.35356425  0.05140532  0.64732798     0.11100
S409        S  0.34562533  0.16662758  0.74755641    -0.27800
H410        H  0.26634214  0.16980045  0.69757943     0.08300
H411        H  0.13078512  0.16738575  0.51697136     0.26800
H412        H  0.30787129  0.02848479  0.59531106     0.21600
H413        H  0.39191344  0.15946659  0.74227569     0.26900
H414        H  0.21613922  0.08719637  0.71351207     0.15700
C415        C  0.69611137  0.90754827  0.38028120    -0.11600
C416        C  0.72409395  0.87912862  0.36051135     0.15000
C417        C  0.70938447  0.86119180  0.32246360     0.01900
C418        C  0.66953390  0.87482120  0.30309405    -0.15900
C419        C  0.64236879  0.90466996  0.32170835    -0.10700
C420        C  0.65518017  0.91996368  0.36173972     0.08600
C421        C  0.76795383  0.86805035  0.38045165     0.09600
S422        S  0.74012053  0.82106034  0.29686492    -0.25000
H423        H  0.65990600  0.86235588  0.27273349     0.19900
S424        S  0.62260730  0.95726395  0.38940689    -0.30700
H425        H  0.70658504  0.92060514  0.41010378     0.10200
C426        C  0.80950673  0.87758016  0.36149339     0.03400
C427        C  0.84967838  0.86093342  0.37824678    -0.13000
C428        C  0.84897445  0.83601719  0.41430880    -0.08700
C429        C  0.80776093  0.83076545  0.43594710     0.06900
C430        C  0.76781267  0.84599067  0.41833140    -0.13800
S431        S  0.81118156  0.91052740  0.31578368    -0.30700
H432        H  0.88125364  0.86581110  0.36222832     0.11100
S433        S  0.80372311  0.80520118  0.48641698    -0.27800
H434        H  0.73618806  0.83996184  0.43391090     0.08300
H435        H  0.58320361  0.93393220  0.38828780     0.26800
H436        H  0.85831160  0.91350382  0.31396975     0.21600
H437        H  0.84598861  0.81798071  0.50140540     0.26900
H438        H  0.75797401  0.80365387  0.33411744     0.15700
C439        C  0.29568166  0.86025730  0.33373105    -0.11600
C440        C  0.27377068  0.88542539  0.36288024     0.15000
C441        C  0.29661704  0.92020585  0.37763018     0.01900
C442        C  0.33923844  0.92981656  0.36146421    -0.15900
C443        C  0.35922555  0.90614887  0.32992461    -0.10700
C444        C  0.33758594  0.87044188  0.31688329     0.08600
C445        C  0.22776526  0.87378921  0.37748286     0.09600
S446        S  0.27196036  0.95526288  0.41442130    -0.25000
H447        H  0.35513120  0.95776856  0.37100238     0.19900
S448        S  0.36104031  0.83761196  0.27723110    -0.30700
H449        H  0.27940958  0.83283949  0.32314219     0.10200
C450        C  0.19178116  0.86773173  0.34860709     0.03400
C451        C  0.15106089  0.85111811  0.36293267    -0.13000
C452        C  0.14467760  0.84192131  0.40580555    -0.08700
C453        C  0.17924570  0.85136654  0.43509883     0.06900
C454        C  0.22049041  0.86623721  0.42062686    -0.13800
S455        S  0.19765311  0.88071205  0.29332946    -0.30700
H456        H  0.12484785  0.84357014  0.34041636     0.11100
S457        S  0.17375045  0.84274620  0.49119764    -0.27800
H458        H  0.24754544  0.87102066  0.44315992     0.08300
H459        H  0.40625045  0.84770452  0.28498578     0.26800
H460        H  0.15249969  0.87428373  0.28171604     0.21600
H461        H  0.12751267  0.85162970  0.49265535     0.26900
H462        H  0.22742124  0.95045399  0.40013111     0.15700
C463        C  0.79759901  0.17351917  0.33802871    -0.11600
C464        C  0.77564472  0.14485000  0.36340267     0.15000
C465        C  0.79828801  0.12956092  0.39977665     0.01900
C466        C  0.84123554  0.14414407  0.41045053    -0.15900
C467        C  0.86133044  0.17519620  0.38683694    -0.10700
C468        C  0.83970751  0.18897339  0.34949024     0.08600
C469        C  0.73037496  0.13027062  0.34960713     0.09600
S470        S  0.77282412  0.09385612  0.43556255    -0.25000
H471        H  0.85740048  0.13351697  0.43926819     0.19900
S472        S  0.86372050  0.22736682  0.31587639    -0.30700
H473        H  0.78137987  0.18451430  0.30932659     0.10200
C474        C  0.69328325  0.15696129  0.34417698     0.03400
C475        C  0.65310480  0.14282608  0.32568951    -0.13000
C476        C  0.64893075  0.10239423  0.31321075    -0.08700
C477        C  0.68487809  0.07511553  0.32144272     0.06900
C478        C  0.72522598  0.08939339  0.33904013    -0.13800
S479        S  0.69704388  0.20905525  0.36075149    -0.30700
H480        H  0.62544546  0.16357080  0.31954221     0.11100
S481        S  0.68022285  0.02211802  0.30844946    -0.27800
H482        H  0.75349792  0.06889534  0.34326094     0.08300
H483        H  0.90874806  0.21969332  0.32757166     0.26800
H484        H  0.65294131  0.22051114  0.34923166     0.21600
H485        H  0.71806231  0.00886672  0.33184862     0.26900
H486        H  0.72850254  0.10807784  0.42964981     0.15700
C487        C  0.20131073  0.13648408  0.36902362    -0.11600
C488        C  0.23227420  0.16550442  0.35479935     0.15000
C489        C  0.21973307  0.20676057  0.35569767     0.01900
C490        C  0.17790733  0.21798234  0.37198539    -0.15900
C491        C  0.14824925  0.18942000  0.38944419    -0.10700
C492        C  0.16007443  0.14791577  0.38711282     0.08600
C493        C  0.27719817  0.15205461  0.33923423     0.09600
S494        S  0.25648134  0.24696061  0.33896247    -0.25000
H495        H  0.16952941  0.24994926  0.37319433     0.19900
S496        S  0.12628254  0.10830053  0.40924959    -0.30700
H497        H  0.21026156  0.10466469  0.36773197     0.10200
C498        C  0.30850346  0.13153967  0.36579500     0.03400
C499        C  0.34944349  0.11744559  0.34902841    -0.13000
C500        C  0.36019526  0.12437579  0.30648324    -0.08700
C501        C  0.33067413  0.14822983  0.28119254     0.06900
C502        C  0.28920186  0.16073967  0.29734548    -0.13800
S503        S  0.29636610  0.12311213  0.42102006    -0.30700
H504        H  0.37187846  0.09911264  0.36843834     0.11100
S505        S  0.34389659  0.16327884  0.22771324    -0.27800
H506        H  0.26602849  0.17742778  0.27703589     0.08300
H507        H  0.12348745  0.12667710  0.44911390     0.26800
H508        H  0.33892654  0.10750211  0.43243766     0.21600
H509        H  0.39091825  0.16149077  0.23299488     0.26900
H510        H  0.29655894  0.22828326  0.35306901     0.15700
C511        C  0.56766656  0.70309622  0.10277382    -0.11600
C512        C  0.60551451  0.72743327  0.10925708     0.15000
C513        C  0.64827049  0.70892708  0.11288550     0.01900
C514        C  0.65265773  0.66721947  0.10614765    -0.15900
C515        C  0.61497785  0.64332853  0.09676781    -0.10700
C516        C  0.57184671  0.66144801  0.09640800     0.08600
C517        C  0.59923482  0.77196331  0.11117931     0.09600
S518        S  0.69823535  0.73700247  0.12593938    -0.25000
H519        H  0.68583258  0.65355023  0.10713351     0.19900
S520        S  0.52066423  0.63332814  0.08869758    -0.30700
H521        H  0.53465301  0.71645866  0.10267429     0.10200
C522        C  0.61521985  0.79785281  0.07897206     0.03400
C523        C  0.60811167  0.83977750  0.08203182    -0.13000
C524        C  0.58536165  0.85625853  0.11656320    -0.08700
C525        C  0.56854585  0.83024249  0.14830536     0.06900
C526        C  0.57583089  0.78848878  0.14534157    -0.13800
S527        S  0.64364508  0.77749468  0.03349652    -0.30700
H528        H  0.62032501  0.85986913  0.05754351     0.11100
S529        S  0.53741455  0.84828506  0.19324061    -0.27800
H530        H  0.56298233  0.76863244  0.16978004     0.08300
H531        H  0.53651924  0.59766170  0.10841232     0.26800
H532        H  0.65240133  0.81473413  0.01347789     0.21600
H533        H  0.51480077  0.87978888  0.17170885     0.26900
H534        H  0.67652232  0.76631264  0.15069568     0.15700
C535        C  0.56223265  0.29774024  0.08072170    -0.11600
C536        C  0.60075427  0.27352509  0.08655028     0.15000
C537        C  0.64330017  0.29197579  0.08885043     0.01900
C538        C  0.64625971  0.33414071  0.08718643    -0.15900
C539        C  0.60769249  0.35852175  0.08172627    -0.10700
C540        C  0.56514062  0.33996588  0.07880984     0.08600
C541        C  0.59553954  0.22932728  0.09207449     0.09600
S542        S  0.69503606  0.26326853  0.09267916    -0.25000
H543        H  0.67920322  0.34790383  0.08853161     0.19900
S544        S  0.51325251  0.36826609  0.07424180    -0.30700
H545        H  0.52960066  0.28375967  0.07806916     0.10200
C546        C  0.60244622  0.21058517  0.13177049     0.03400
C547        C  0.59837515  0.16849863  0.13544493    -0.13000
C548        C  0.58664165  0.14470798  0.10042063    -0.08700
C549        C  0.57982393  0.16372183  0.06064053     0.06900
C550        C  0.58417985  0.20572031  0.05699601    -0.13800
S551        S  0.61446181  0.24043315  0.17815535    -0.30700
H552        H  0.60285202  0.15424067  0.16611805     0.11100
S553        S  0.56657569  0.13635243  0.01311378    -0.27800
H554        H  0.57954768  0.21999062  0.02639654     0.08300
H555        H  0.52805692  0.40166864  0.09777470     0.26800
H556        H  0.61696986  0.20805672  0.20721485     0.21600
H557        H  0.59316202  0.10230118  0.02357116     0.26900
H558        H  0.67973868  0.22937344  0.07026298     0.15700
C559        C  0.59142434  0.80320960  0.93614773    -0.11600
C560        C  0.61896885  0.78266641  0.90756489     0.15000
C561        C  0.64245247  0.80482859  0.87667620     0.01900
C562        C  0.63788402  0.84685962  0.87505958    -0.15900
C563        C  0.60920413  0.86782017  0.90271500    -0.10700
C564        C  0.58669501  0.84548833  0.93462649     0.08600
C565        C  0.62281790  0.73815692  0.91110765     0.09600
S566        S  0.67780410  0.78142979  0.83745221    -0.25000
H567        H  0.65600257  0.86283719  0.85071289     0.19900
S568        S  0.55342863  0.86971119  0.97494237    -0.30700
H569        H  0.57416214  0.78592026  0.96019230     0.10200
C570        C  0.66303996  0.71919785  0.92472853     0.03400
C571        C  0.66556678  0.67688457  0.92585269    -0.13000
C572        C  0.62852245  0.65316200  0.91429113    -0.08700
C573        C  0.58798902  0.67217782  0.90146326     0.06900
C574        C  0.58559409  0.71448359  0.90001566    -0.13800
S575        S  0.71079110  0.74875685  0.94156364    -0.30700
H576        H  0.69631663  0.66210675  0.93647313     0.11100
S577        S  0.53868036  0.64438527  0.88564093    -0.27800
H578        H  0.55474711  0.72913074  0.88936925     0.08300
H579        H  0.53270887  0.83456164  0.99052939     0.26800
H580        H  0.74083073  0.71611540  0.94759471     0.21600
H581        H  0.56142309  0.60977066  0.87121926     0.26900
H582        H  0.65431247  0.74474568  0.83518103     0.15700
C583        C  0.61188498  0.30388845  0.86295730    -0.11600
C584        C  0.59096948  0.28394252  0.89663249     0.15000
C585        C  0.57494926  0.30640338  0.93104922     0.01900
C586        C  0.58375369  0.34772938  0.93303954    -0.15900
C587        C  0.60703151  0.36774711  0.90056956    -0.10700
C588        C  0.61929896  0.34577525  0.86406390     0.08600
C589        C  0.58914989  0.23941727  0.89647280     0.09600
S590        S  0.54365665  0.28401522  0.97366859    -0.25000
H591        H  0.57293939  0.36409247  0.96075526     0.19900
S592        S  0.64234766  0.37044850  0.81798751    -0.30700
H593        H  0.62275263  0.28637834  0.83603467     0.10200
C594        C  0.55631239  0.21872743  0.87297076     0.03400
C595        C  0.55608670  0.17640407  0.87381254    -0.13000
C596        C  0.58859499  0.15451443  0.89700827    -0.08700
C597        C  0.62170680  0.17527333  0.92040602     0.06900
C598        C  0.62130641  0.21759990  0.92017968    -0.13800
S599        S  0.51500773  0.24618132  0.84175576    -0.30700
H600        H  0.53125095  0.16015025  0.85543227     0.11100
S601        S  0.66604183  0.15006477  0.95002058    -0.27800
H602        H  0.64659916  0.23373737  0.93814677     0.08300
H603        H  0.65169006  0.33521638  0.79482585     0.26800
H604        H  0.48832957  0.21261422  0.83134528     0.21600
H605        H  0.64635538  0.11163277  0.95249103     0.26900
H606        H  0.52397237  0.25298453  0.94981311     0.15700
C607        C  0.93532363  0.60387634  0.72741352    -0.11600
C608        C  0.89146552  0.61004991  0.74230884     0.15000
C609        C  0.85742558  0.62099006  0.71268273     0.01900
C610        C  0.86854852  0.62798347  0.67021891    -0.15900
C611        C  0.91240975  0.62158959  0.65518299    -0.10700
C612        C  0.94554867  0.60756235  0.68431755     0.08600
C613        C  0.88209005  0.60538556  0.78858582     0.09600
S614        S  0.79885025  0.62542191  0.72656788    -0.25000
H615        H  0.84225402  0.63772487  0.64844974     0.19900
S616        S  0.00154068  0.59397273  0.66918411    -0.30700
H617        H  0.96186879  0.59549710  0.74951631     0.10200
C618        C  0.89119284  0.56886574  0.81084857     0.03400
C619        C  0.87685600  0.56449023  0.85289882    -0.13000
C620        C  0.85231554  0.59519336  0.87292974    -0.08700
C621        C  0.84538588  0.63237057  0.85160319     0.06900
C622        C  0.86110647  0.63736714  0.81020272    -0.13800
S623        S  0.91713503  0.52618221  0.78498790    -0.30700
H624        H  0.88124225  0.53567542  0.86898704     0.11100
S625        S  0.81344817  0.67332266  0.87436271    -0.27800
H626        H  0.85474134  0.66578480  0.79386096     0.08300
H627        H  0.98634152  0.56527567  0.63974305     0.26800
H628        H  0.90662273  0.49696931  0.81579805     0.21600
H629        H  0.82019674  0.66169069  0.91681593     0.26900
H630        H  0.79995048  0.59457700  0.75744753     0.15700
C631        C  0.84144789  0.63492244  0.20561643    -0.11600
C632        C  0.87474715  0.60970820  0.22341166     0.15000
C633        C  0.89171575  0.57709368  0.19946295     0.01900
C634        C  0.87333540  0.56921868  0.15933018    -0.15900
C635        C  0.83846973  0.59345546  0.14251665    -0.10700
C636        C  0.82358602  0.62738730  0.16548920     0.08600
C637        C  0.88758363  0.61630616  0.26828184     0.09600
S638        S  0.93502806  0.54338202  0.21925555    -0.25000
H639        H  0.88440558  0.54263852  0.14233500     0.19900
S640        S  0.78007652  0.66103899  0.14615011    -0.30700
H641        H  0.82814446  0.65992938  0.22377285     0.10200
C642        C  0.90772408  0.65265822  0.28153459     0.03400
C643        C  0.91453683  0.65949377  0.32486695    -0.13000
C644        C  0.90240096  0.63036422  0.35511878    -0.08700
C645        C  0.88362377  0.59347469  0.34176972     0.06900
C646        C  0.87623073  0.58690302  0.29858051    -0.13800
S647        S  0.92582125  0.68980900  0.24320125    -0.30700
H648        H  0.92981476  0.68739725  0.33530131     0.11100
S649        S  0.86744725  0.55404365  0.37822581    -0.27800
H650        H  0.86051182  0.55903723  0.28854783     0.08300
H651        H  0.78799327  0.65437752  0.10294886     0.26800
H652        H  0.94489080  0.71693221  0.27225714     0.21600
H653        H  0.85726106  0.57948684  0.41234247     0.26900
H654        H  0.95570812  0.57143839  0.24626101     0.15700
C655        C  0.88833631  0.33177081  0.72433160    -0.11600
C656        C  0.87521758  0.36918852  0.74104804     0.15000
C657        C  0.87217846  0.40333250  0.71396703     0.01900
C658        C  0.88296302  0.39949908  0.67120983    -0.15900
C659        C  0.89492236  0.36195986  0.65423162    -0.10700
C660        C  0.89834855  0.32776019  0.68133926     0.08600
C661        C  0.86373323  0.37186797  0.78646793     0.09600
S662        S  0.85325194  0.45234484  0.73149748    -0.25000
H663        H  0.88057855  0.42583717  0.65066287     0.19900
S664        S  0.91673394  0.27858792  0.66374450    -0.30700
H665        H  0.89093715  0.30555248  0.74501721     0.10200
C666        C  0.82251193  0.35699972  0.80148061     0.03400
C667        C  0.80877451  0.36675796  0.84249428    -0.13000
C668        C  0.83520894  0.39119729  0.86894405    -0.08700
C669        C  0.87832223  0.40299570  0.85501138     0.06900
C670        C  0.89200356  0.39340058  0.81390229    -0.13800
S671        S  0.78506671  0.32950753  0.76689918    -0.30700
H672        H  0.77555039  0.35806296  0.85286463     0.11100
S673        S  0.91504562  0.43410769  0.88610020    -0.27800
H674        H  0.92387059  0.40461283  0.80243206     0.08300
H675        H  0.94746480  0.29298955  0.63376009     0.26800
H676        H  0.75118608  0.32233486  0.79678633     0.21600
H677        H  0.91780332  0.40533522  0.91899443     0.26900
H678        H  0.82391330  0.43832820  0.76289116     0.15700
C679        C  0.83186780  0.35736090  0.20762410    -0.11600
C680        C  0.86912603  0.38040895  0.21981126     0.15000
C681        C  0.88908160  0.40655588  0.18995608     0.01900
C682        C  0.86912268  0.41164543  0.14992570    -0.15900
C683        C  0.82966257  0.39097394  0.13887041    -0.10700
C684        C  0.81221959  0.36211211  0.16748874     0.08600
C685        C  0.88329873  0.37932802  0.26486807     0.09600
S686        S  0.93783688  0.43660698  0.20189864    -0.25000
H687        H  0.88274572  0.43404437  0.12846541     0.19900
S688        S  0.76357878  0.33190577  0.15541765    -0.30700
H689        H  0.81686194  0.33672918  0.23017137     0.10200
C690        C  0.86682340  0.40810623  0.29379958     0.03400
C691        C  0.87862415  0.40475050  0.33677059    -0.13000
C692        C  0.90679068  0.37339216  0.35121365    -0.08700
C693        C  0.92464186  0.34547539  0.32209119     0.06900
C694        C  0.91228616  0.34842921  0.27920651    -0.13800
S695        S  0.82970843  0.44841613  0.27614482    -0.30700
H696        H  0.86506572  0.42597215  0.35939440     0.11100
S697        S  0.96334117  0.30626998  0.33951284    -0.27800
H698        H  0.92497799  0.32663079  0.25675236     0.04100
H699        H  0.76882436  0.33325643  0.11125981     0.26800
H700        H  0.82635821  0.46812936  0.31531076     0.21600
H701        H  0.97460578  0.29226227  0.29900417     0.26900
H702        H  0.95452892  0.41301982  0.23568732     0.15700
C703        C  0.41610161  0.79646177  0.94537831    -0.11600
C704        C  0.41832621  0.77240994  0.90890175     0.15000
C705        C  0.42319438  0.79162343  0.86912389     0.01900
C706        C  0.42339282  0.83389984  0.86647714    -0.15900
C707        C  0.42076695  0.85791400  0.90281435    -0.10700
C708        C  0.41770930  0.83883176  0.94279560     0.08600
C709        C  0.41130619  0.72790643  0.91272004     0.09600
S710        S  0.43075882  0.76390654  0.82071357    -0.25000
H711        H  0.42727183  0.84819393  0.83577459     0.19900
S712        S  0.41406996  0.86674573  0.99144348    -0.30700
H713        H  0.41188602  0.78215827  0.97603288     0.10200
C714        C  0.43965980  0.70286934  0.93755467     0.03400
C715        C  0.43015167  0.66143739  0.94131400    -0.13000
C716        C  0.39280281  0.64388197  0.92079204    -0.08700
C717        C  0.36540463  0.66902872  0.89452810     0.06900
C718        C  0.37466925  0.71058636  0.89144184    -0.13800
S719        S  0.48880951  0.72323954  0.96356100    -0.30700
H720        H  0.45231021  0.64275741  0.96044888     0.11100
S721        S  0.31796624  0.64965839  0.86507657    -0.27800
H722        H  0.35283805  0.73005822  0.87263788     0.08300
H723        H  0.39094708  0.90029394  0.97415299     0.26800
H724        H  0.50196071  0.68771148  0.98522077     0.21600
H725        H  0.30985355  0.68425343  0.83990885     0.26900
H726        H  0.45307385  0.73063229  0.83953929     0.15700
C727        C  0.37846291  0.19816156  0.95104937    -0.11600
C728        C  0.37638283  0.22468298  0.91627680     0.15000
C729        C  0.37893301  0.20893384  0.87497795     0.01900
C730        C  0.38637572  0.16753321  0.86937636    -0.15900
C731        C  0.39116683  0.14130950  0.90419673    -0.10700
C732        C  0.38570034  0.15665267  0.94546158     0.08600
C733        C  0.37592771  0.26883712  0.92348123     0.09600
S734        S  0.37480490  0.24055643  0.82837549    -0.25000
H735        H  0.39039668  0.15599898  0.83758318     0.19900
S736        S  0.38797429  0.12495763  0.99207174    -0.30700
H737        H  0.37534020  0.20995197  0.98282359     0.10200
C738        C  0.33700420  0.28941080  0.93689396     0.03400
C739        C  0.33739180  0.33178372  0.93926017    -0.13000
C740        C  0.37620470  0.35378337  0.92924161    -0.08700
C741        C  0.41557590  0.33296107  0.91721622     0.06900
C742        C  0.41501071  0.29075915  0.91454516    -0.13800
S743        S  0.28664755  0.26187990  0.94984632    -0.30700
H744        H  0.30747422  0.34791665  0.94915462     0.11100
S745        S  0.46719016  0.35827267  0.90393652    -0.27800
H746        H  0.44506963  0.27481702  0.90471561     0.08300
H747        H  0.37162805  0.08994547  0.97229404     0.26800
H748        H  0.26176460  0.29527475  0.96445712     0.21600
H749        H  0.44762470  0.39503452  0.89052497     0.26900
H750        H  0.34503494  0.26912189  0.84570840     0.15700
C751        C  0.36974075  0.71322266  0.06428576    -0.11600
C752        C  0.39514947  0.73023605  0.09699228     0.15000
C753        C  0.41631452  0.70470121  0.12734004     0.01900
C754        C  0.41020030  0.66279478  0.12496027    -0.15900
C755        C  0.38345194  0.64596206  0.09304297    -0.10700
C756        C  0.36351990  0.67147330  0.06198207     0.08600
C757        C  0.39662568  0.77473280  0.09972753     0.09600
S758        S  0.45132866  0.72342835  0.16973035    -0.25000
H759        H  0.42603652  0.64319410  0.14841590     0.19900
S760        S  0.32996232  0.65306764  0.01846566    -0.30700
H761        H  0.35393035  0.73278990  0.04077173     0.10200
C762        C  0.43520851  0.79658935  0.08870455     0.03400
C763        C  0.43625487  0.83821719  0.09572138    -0.13000
C764        C  0.39841086  0.85895780  0.11105519    -0.08700
C765        C  0.35810976  0.83765745  0.11768711     0.06900
C766        C  0.35800238  0.79549324  0.11304891    -0.13800
S767        S  0.48206861  0.77210351  0.06359962    -0.30700
H768        H  0.46679008  0.85462786  0.08914157     0.11100
S769        S  0.30627563  0.86391790  0.12940152    -0.27800
H770        H  0.32779559  0.77852619  0.11965597     0.08300
H771        H  0.30915290  0.62148944  0.04053632     0.26800
H772        H  0.51025737  0.80604845  0.06165381     0.21600
H773        H  0.27778573  0.83032204  0.12526419     0.26900
H774        H  0.42995332  0.76120052  0.17395735     0.15700
C775        C  0.35230236  0.20558558  0.10090569    -0.11600
C776        C  0.39124479  0.22802581  0.10932063     0.15000
C777        C  0.43212873  0.20758262  0.11782946     0.01900
C778        C  0.43385318  0.16548479  0.11557678    -0.15900
C779        C  0.39499453  0.14295054  0.10748111    -0.10700
C780        C  0.35365999  0.16319818  0.10034740     0.08600
C781        C  0.38864467  0.27263440  0.10735555     0.09600
S782        S  0.48281367  0.23310563  0.13356303    -0.25000
H783        H  0.46539758  0.15006111  0.12250628     0.19900
S784        S  0.30181411  0.13676966  0.09036609    -0.30700
H785        H  0.32077000  0.22121665  0.09457760     0.10200
C786        C  0.40398162  0.29408726  0.07175306     0.03400
C787        C  0.39904739  0.33622361  0.07023019    -0.13000
C788        C  0.38090980  0.35773685  0.10442707    -0.08700
C789        C  0.36930805  0.33621103  0.14157352     0.06900
C790        C  0.37171323  0.29387305  0.14203033    -0.13800
S791        S  0.42942046  0.26784586  0.02804658    -0.30700
H792        H  0.40861127  0.35229668  0.04179598     0.11100
S793        S  0.35419009  0.36073226  0.19019260    -0.27800
H794        H  0.36176849  0.27736005  0.17015619     0.08300
H795        H  0.32156718  0.10204341  0.07274935     0.26800
H796        H  0.44386505  0.30253233  0.00616124     0.21600
H797        H  0.38183760  0.39457997  0.18369787     0.26900
H798        H  0.46194686  0.26668299  0.15228855     0.15700
C799        C  0.10523524  0.65528937  0.71836972    -0.11600
C800        C  0.13162894  0.62263474  0.73297057     0.15000
C801        C  0.14776115  0.59407115  0.70348440     0.01900
C802        C  0.13606511  0.59798659  0.66062504    -0.15900
C803        C  0.10999480  0.63071368  0.64605842    -0.10700
C804        C  0.09432336  0.65968209  0.67534840     0.08600
C805        C  0.14106812  0.61832740  0.77906329     0.09600
S806        S  0.18468795  0.55275894  0.71828723    -0.25000
H807        H  0.14845875  0.57591921  0.63826305     0.19900
S808        S  0.05963205  0.70243324  0.66000862    -0.30700
H809        H  0.09264703  0.67724905  0.74074521     0.10200
C810        C  0.17123185  0.64420258  0.80015715     0.03400
C811        C  0.18372961  0.63567754  0.84227125    -0.13000
C812        C  0.16677713  0.60183731  0.86394295    -0.08700
C813        C  0.13464356  0.57730906  0.84332955     0.06900
C814        C  0.12218037  0.58580583  0.80131507    -0.13800
S815        S  0.19735600  0.68561816  0.77222725    -0.30700
H816        H  0.20931372  0.65377947  0.85749739     0.11100
S817        S  0.11271691  0.53194634  0.86695031    -0.27800
H818        H  0.09907471  0.56580217  0.78516160     0.08300
H819        H  0.03524925  0.68225570  0.62837195     0.26800
H820        H  0.22188806  0.70079840  0.80681190     0.21600
H821        H  0.10050781  0.55126574  0.90467431     0.26900
H822        H  0.20636624  0.57276966  0.75174077     0.15700
C823        C  0.15950511  0.64870326  0.20100416    -0.11600
C824        C  0.11743732  0.63208657  0.21032105     0.15000
C825        C  0.09386245  0.61102810  0.17837825     0.01900
C826        C  0.11548008  0.60236121  0.14016679    -0.15900
C827        C  0.15963665  0.61543149  0.13283150    -0.10700
C828        C  0.18052266  0.64105407  0.16252927     0.08600
C829        C  0.10213069  0.63417568  0.25483108     0.09600
S830        S  0.03732914  0.59284907  0.18521499    -0.25000
H831        H  0.09882763  0.58310721  0.11737540     0.19900
S832        S  0.23533146  0.66278597  0.15423794    -0.30700
H833        H  0.17721894  0.66604190  0.22479836     0.10200
C834        C  0.10083856  0.59931146  0.28090709     0.03400
C835        C  0.09300536  0.60345732  0.32439256    -0.13000
C836        C  0.08781585  0.64174737  0.34261939    -0.08700
C837        C  0.08750887  0.67653697  0.31628256     0.06900
C838        C  0.09474493  0.67230391  0.27275354    -0.13800
S839        S  0.11320882  0.54979623  0.25989807    -0.30700
H840        H  0.09304513  0.57691421  0.34465374     0.11100
S841        S  0.07683052  0.72639198  0.33733258    -0.27800
H842        H  0.09586359  0.69886009  0.25256138     0.08300
H843        H  0.23323437  0.66221805  0.10977910     0.26800
H844        H  0.09892051  0.52760494  0.29538731     0.21600
H845        H  0.07698541  0.74755256  0.29859764     0.26900
H846        H  0.02511828  0.62048767  0.21680859     0.15700
C847        C  0.15605408  0.36284203  0.80915293    -0.11600
C848        C  0.11635076  0.38353915  0.79776937     0.15000
C849        C  0.09559614  0.40883466  0.82796371     0.01900
C850        C  0.11794937  0.41688585  0.86631260    -0.15900
C851        C  0.15997749  0.39914313  0.87578976    -0.10700
C852        C  0.17750446  0.36974719  0.84799036     0.08600
C853        C  0.09984886  0.37993238  0.75329995     0.09600
S854        S  0.04159265  0.43270473  0.81881137    -0.25000
H855        H  0.10352924  0.43874895  0.88778292     0.19900
S856        S  0.22785729  0.34083444  0.85981867    -0.30700
H857        H  0.17135582  0.34214281  0.78694612     0.10200
C858        C  0.10226175  0.41262908  0.72432831     0.03400
C859        C  0.09189170  0.40639838  0.68133128    -0.13000
C860        C  0.07973413  0.36804166  0.66651059    -0.08700
C861        C  0.07490716  0.33595872  0.69600988     0.06900
C862        C  0.08561736  0.34209223  0.73872882    -0.13800
S863        S  0.12206835  0.46149791  0.74128073    -0.30700
H864        H  0.09554600  0.43094985  0.65878656     0.11100
S865        S  0.05474046  0.28657407  0.68140478    -0.27800
H866        H  0.08324552  0.31699543  0.76083153     0.08300
H867        H  0.22428103  0.34352625  0.90405060     0.26800
H868        H  0.11238981  0.48232007  0.70330730     0.21600
H869        H  0.02723555  0.30030358  0.64786491     0.26900
H870        H  0.02560319  0.40403466  0.78977455     0.15700
C871        C  0.11285834  0.42413139  0.30233637    -0.11600
C872        C  0.10732903  0.39135809  0.27457531     0.15000
C873        C  0.09465958  0.35345564  0.29162864     0.01900
C874        C  0.09059920  0.34860388  0.33543924    -0.15900
C875        C  0.09685429  0.38112614  0.36314149    -0.10700
C876        C  0.10707118  0.41962210  0.34618339     0.08600
C877        C  0.12028800  0.39620757  0.22920051     0.09600
S878        S  0.08238088  0.31018730  0.25918796    -0.25000
H879        H  0.08143940  0.31920504  0.34799696     0.19900
S880        S  0.11452597  0.46384380  0.37859802    -0.30700
H881        H  0.12320369  0.45320725  0.28989454     0.10200
C882        C  0.10067315  0.42583788  0.20217005     0.03400
C883        C  0.11782873  0.43162550  0.16110263    -0.13000
C884        C  0.15442104  0.40858692  0.14656431    -0.08700
C885        C  0.17225927  0.37759864  0.17287745     0.06900
C886        C  0.15533215  0.37194954  0.21365058    -0.13800
S887        S  0.05469748  0.45706556  0.22023168    -0.30700
H888        H  0.10476962  0.45597046  0.14138460     0.11100
S889        S  0.21858760  0.34567500  0.15703393    -0.27800
H890        H  0.17077184  0.34922621  0.23404306     0.08300
H891        H  0.12896549  0.44331311  0.41536218     0.26800
H892        H  0.04884243  0.47971818  0.18274917     0.21600
H893        H  0.21061159  0.34920830  0.11326111     0.26900
H894        H  0.06703756  0.33267256  0.22395452     0.15700
loop_ 
_geom_bond_atom_site_label_1 
_geom_bond_atom_site_label_2 
_geom_bond_distance 
_geom_bond_site_symmetry_2 
_ccdc_geom_bond_type 
C1           N19   1.350       .  A
C1           C38   1.465       .  S
C1          C788   1.483       .  S
N2           N19   1.323       .  A
N2           N24   1.317       .  A
N2          Co39   2.077       .  S
C3           N28   1.345       .  A
C3           C41   1.467       .  S
C3           H48   1.082       .  S
H4           C45   1.081       .  S
C5           N29   1.335       .  A
C5            C9   1.456       .  S
C5           H34   1.082       .  S
Co6          N24   2.088       .  S
Co6          N14   2.071       .  S
Co6          N46   2.082       .  S
Co6          N22   2.086       .  S
Co6         Cl50   2.417       .  S
N7           C45   1.352       .  A
N7           N14   1.322       .  A
N7           Co8   2.121       .  S
Co8          N11   2.105   1_554  S
Co8          N28   2.093       .  S
Co8          N15   2.120   1_554  S
Co8         Cl50   2.489       .  S
C9           N47   1.357       .  A
C9          C851   1.484       .  S
N10          N17   1.317       .  A
N10          N40   1.324       .  A
N10         Co43   2.082       .  S
N11          N29   1.322       .  A
N11          N47   1.330       .  A
N12          C41   1.346       .  A
N12          N22   1.319       .  A
H13          C38   1.080       .  S
N14          N35   1.319       .  A
N15          N33   1.321       .  A
N15          N20   1.331       .  A
C16          N20   1.360       .  A
C16          C44   1.449       .  S
C16         C812   1.483       .  S
N17          C32   1.342       .  A
N17         Co39   2.077   1_556  S
C18          N46   1.341       .  A
C18          C21   1.459       .  S
C18          H52   1.081       .  S
C21          N42   1.347       .  A
C21         C755   1.467       .  S
N22          N28   1.322       .  A
N23          C49   1.339       .  A
N23          N25   1.316       .  A
N23         Co39   2.074   1_556  S
N24          C38   1.342       .  A
N25          N53   1.328       .  A
N25         Co43   2.102       .  S
H26          C49   1.080       .  S
H27          C44   1.082       .  S
N29         Co43   2.087       .  S
N30          N42   1.323       .  A
N30          N46   1.317       .  A
N30         Co39   2.076       .  S
C31          N35   1.342       .  A
C31          C45   1.475       .  S
C31         C884   1.482       .  S
C32          C51   1.457       .  S
C32          H36   1.080       .  S
N33          C44   1.333       .  A
N33         Co43   2.063       .  S
C37          N53   1.356       .  A
C37          C49   1.462       .  S
C37         C716   1.500       .  S
Co39        Cl50   2.490       .  S
N40          C51   1.349       .  A
C41         C827   1.475       .  S
Co43        Cl50   2.415   1_556  S
C51         C740   1.470       .  S
C54          N72   1.358       .  A
C54          C91   1.455       .  S
C54         C683   1.481       .  S
N55          N72   1.329       .  A
N55          N77   1.321       .  A
N55         Co92   2.106       .  S
C56          N81   1.339       .  A
C56          C94   1.458       .  S
C56         H101   1.081       .  S
H57          C98   1.080       .  S
C58          N82   1.339       .  A
C58          C62   1.464       .  S
C58          H87   1.079       .  S
Co59         N77   2.077       .  S
Co59         N67   2.079       .  S
Co59         N99   2.071       .  S
Co59         N75   2.084       .  S
Co59       Cl103   2.415       .  S
N60          C98   1.342       .  A
N60          N67   1.318       .  A
N60         Co61   2.085   1_554  S
Co61         N64   2.077       .  S
Co61         N81   2.075   1_556  S
Co61         N68   2.082       .  S
Co61       Cl103   2.488   1_556  S
C62         N100   1.352       .  A
C62         C587   1.483       .  S
N63          N70   1.321       .  A
N63          N93   1.319       .  A
N63         Co96   2.078       .  S
N64          N82   1.315       .  A
N64         N100   1.322       .  A
N65          C94   1.351       .  A
N65          N75   1.325       .  A
H66          C91   1.082       .  S
N67          N88   1.323       .  A
N68          N86   1.318       .  A
N68          N73   1.325       .  A
C69          N73   1.350       .  A
C69          C97   1.456       .  S
C69         C572   1.470       .  S
N70          C85   1.348       .  A
N70         Co92   2.103   1_556  S
C71          N99   1.333       .  A
C71          C74   1.450       .  S
C71         H105   1.082       .  S
C74          N95   1.356       .  A
C74         C635   1.475       .  S
N75          N81   1.317       .  A
N76         C102   1.348       .  A
N76          N78   1.321       .  A
N76         Co92   2.109   1_556  S
N77          C91   1.335       .  A
N78         N106   1.319       .  A
N78         Co96   2.072       .  S
H79         C102   1.081       .  S
H80          C97   1.081       .  S
N82         Co96   2.078       .  S
N83          N95   1.329       .  A
N83          N99   1.322       .  A
N83         Co92   2.106       .  S
C84          N88   1.349       .  A
C84          C98   1.462       .  S
C84         C539   1.476       .  S
C85         C104   1.473       .  S
C85          H89   1.080       .  S
N86          C97   1.338       .  A
N86         Co96   2.079       .  S
C90         N106   1.343       .  A
C90         C102   1.473       .  S
C90         C620   1.476       .  S
Co92       Cl103   2.489       .  S
N93         C104   1.345       .  A
C94         C515   1.476       .  S
Co96       Cl103   2.412   1_556  S
C104        C668   1.482       .  S
C107        N125   1.351       .  A
C107        C144   1.456       .  S
C107        C779   1.468       .  S
N108        N125   1.323       .  A
N108        N130   1.316       .  A
N108       Co145   2.077       .  S
C109        N134   1.349       .  A
C109        C147   1.470       .  S
C109        H154   1.082       .  S
H110        C151   1.081       .  S
C111        N135   1.335       .  A
C111        C115   1.453       .  S
C111        H140   1.082       .  S
Co112       N130   2.078       .  S
Co112       N120   2.072       .  S
Co112       N152   2.081   1_545  S
Co112       N128   2.075   1_545  S
Co112      Cl156   2.421       .  S
N113        C151   1.351       .  A
N113        N120   1.323       .  A
N113       Co114   2.115       .  S
Co114       N117   2.117       .  S
Co114       N134   2.110   1_545  S
Co114       N121   2.111   1_545  S
Co114      Cl156   2.492       .  S
C115        N153   1.359       .  A
C115        C476   1.484       .  S
N116        N123   1.317       .  A
N116        N146   1.324       .  A
N116       Co149   2.087       .  S
N117        N135   1.322       .  A
N117        N153   1.331       .  A
N118        C147   1.344       .  A
N118        N128   1.321       .  A
H119        C144   1.081       .  S
N120        N141   1.317       .  A
N121        N139   1.322       .  A
N121        N126   1.329       .  A
C122        N126   1.357       .  A
C122        C150   1.454       .  S
C122        C419   1.487       .  S
N123        C138   1.339       .  A
N123       Co145   2.071       .  S
C124        N152   1.341       .  A
C124        C127   1.464       .  S
C124        H158   1.081       .  S
C127        N148   1.347       .  A
C127        C764   1.474       .  S
N128        N134   1.322       .  A
N129        C155   1.342       .  A
N129        N131   1.318       .  A
N129       Co145   2.081   1_565  S
N130        C144   1.339       .  A
N131        N159   1.325       .  A
N131       Co149   2.086   1_565  S
H132        C155   1.080       .  S
H133        C150   1.082       .  S
N135       Co149   2.073       .  S
N136        N148   1.319       .  A
N136        N152   1.317       .  A
N136       Co145   2.071   1_565  S
C137        N141   1.341       .  A
C137        C151   1.475       .  S
C137        C500   1.480       .  S
C138        C157   1.459       .  S
C138        H142   1.080       .  S
N139        C150   1.336       .  A
N139       Co149   2.078   1_565  S
C143        N159   1.350       .  A
C143        C155   1.456       .  S
C143        C524   1.472       .  S
Co145      Cl156   2.479       .  S
N146        C157   1.352       .  A
C147        C443   1.479       .  S
Co149      Cl156   2.420       .  S
C157        C548   1.479       .  S
C160        N178   1.357       .  A
C160        C197   1.450       .  S
C160        C404   1.477       .  S
N161        N178   1.330       .  A
N161        N183   1.322       .  A
N161       Co198   2.112       .  S
C162        N187   1.341       .  A
C162        C200   1.459       .  S
C162        H207   1.078       .  S
H163        C204   1.081       .  S
C164        N188   1.338       .  A
C164        C168   1.456       .  S
C164        H193   1.081       .  S
Co165       N183   2.071       .  S
Co165       N173   2.083       .  S
Co165       N205   2.062   1_545  S
Co165       N181   2.085   1_545  S
Co165      Cl209   2.412       .  S
N166        C204   1.340       .  A
N166        N173   1.317       .  A
N166       Co167   2.076       .  S
Co167       N170   2.084       .  S
Co167       N187   2.080   1_545  S
Co167       N174   2.080   1_545  S
Co167      Cl209   2.483       .  S
C168        N206   1.351       .  A
C168        C596   1.464       .  S
N169        N176   1.322       .  A
N169        N199   1.321       .  A
N169       Co202   2.078       .  S
N170        N188   1.317       .  A
N170        N206   1.324       .  A
N171        C200   1.352       .  A
N171        N181   1.325       .  A
H172        C197   1.082       .  S
N173        N194   1.324       .  A
N174        N192   1.316       .  A
N174        N179   1.324       .  A
C175        N179   1.351       .  A
C175        C203   1.467       .  S
C175        C563   1.492       .  S
N176        C191   1.348       .  A
N176       Co198   2.115       .  S
C177        N205   1.329       .  A
C177        C180   1.448       .  S
C177        H211   1.082       .  S
C180        N201   1.360       .  A
C180        C356   1.482       .  S
N181        N187   1.316       .  A
N182        C208   1.352       .  A
N182        N184   1.321       .  A
N182       Co198   2.117   1_565  S
N183        C197   1.333       .  A
N184        N212   1.317       .  A
N184       Co202   2.072   1_565  S
H185        C208   1.080       .  S
H186        C203   1.079       .  S
N188       Co202   2.075       .  S
N189        N201   1.332       .  A
N189        N205   1.321       .  A
N189       Co198   2.113   1_565  S
C190        N194   1.350       .  A
C190        C204   1.459       .  S
C190        C731   1.473       .  S
C191        C210   1.473       .  S
C191        H195   1.082       .  S
N192        C203   1.338       .  A
N192       Co202   2.081   1_565  S
C196        N212   1.344       .  A
C196        C208   1.480       .  S
C196        C332   1.494       .  S
Co198      Cl209   2.496       .  S
N199        C210   1.346       .  A
C200        C707   1.479       .  S
Co202      Cl209   2.421       .  S
C210        C380   1.480       .  S
C213        N231   1.351       .  A
C213        C250   1.460       .  S
C213        C875   1.481       .  S
N214        N231   1.327       .  A
N214        N236   1.317       .  A
N214       Co251   2.085   1_455  S
C215        N240   1.347       .  A
C215        C253   1.468       .  S
C215        H260   1.082       .  S
H216        C257   1.080       .  S
C217        N241   1.334       .  A
C217        C221   1.450       .  S
C217        H246   1.082       .  S
Co218       N236   2.091       .  S
Co218       N226   2.070       .  S
Co218       N258   2.085       .  S
Co218       N234   2.075       .  S
Co218      Cl262   2.417   1_455  S
N219        C257   1.353       .  A
N219        N226   1.323       .  A
N219       Co220   2.125   1_455  S
Co220       N223   2.112       .  S
Co220       N240   2.104   1_655  S
Co220       N227   2.122       .  S
Co220      Cl262   2.495       .  S
C221        N259   1.359       .  A
C221        C467   1.482       .  S
N222        N229   1.319       .  A
N222        N252   1.323       .  A
N222       Co255   2.077       .  S
N223        N241   1.321       .  A
N223        N259   1.332       .  A
N224        C253   1.345       .  A
N224        N234   1.320       .  A
H225        C250   1.081       .  S
N226        N247   1.317       .  A
N227        N245   1.321       .  A
N227        N232   1.332       .  A
C228        N232   1.361       .  A
C228        C256   1.448       .  S
C228        C371   1.480       .  S
N229        C244   1.346       .  A
N229       Co251   2.096       .  S
C230        N258   1.341       .  A
C230        C233   1.458       .  S
C230        H264   1.081       .  S
C233        N254   1.352       .  A
C233        C860   1.485       .  S
N234        N240   1.322       .  A
N235        C261   1.341       .  A
N235        N237   1.317       .  A
N235       Co251   2.079       .  S
N236        C250   1.341       .  A
N237        N265   1.325       .  A
N237       Co255   2.080       .  S
H238        C261   1.080       .  S
H239        C256   1.082       .  S
N241       Co255   2.073       .  S
N242        N254   1.329       .  A
N242        N258   1.319       .  A
N242       Co251   2.102   1_455  S
C243        N247   1.343       .  A
C243        C257   1.481       .  S
C243        C491   1.493       .  S
C244        C263   1.461       .  S
C244        H248   1.081       .  S
N245        C256   1.332       .  A
N245       Co255   2.066       .  S
C249        N265   1.349       .  A
C249        C261   1.455       .  S
C249        C659   1.475       .  S
Co251      Cl262   2.489       .  S
N252        C263   1.346       .  A
C253        C395   1.476       .  S
Co255      Cl262   2.412       .  S
C263        C692   1.474       .  S
C266        N284   1.359       .  A
C266        C303   1.452       .  S
C266        C452   1.484       .  S
N267        N284   1.332       .  A
N267        N289   1.322       .  A
N267       Co304   2.119       .  S
C268        N293   1.341       .  A
C268        C306   1.460       .  S
C268        H313   1.078       .  S
H269        C310   1.080       .  S
C270        N294   1.341       .  A
C270        C274   1.456       .  S
C270        H299   1.081       .  S
Co271       N289   2.073       .  S
Co271       N279   2.081       .  S
Co271       N311   2.050       .  S
Co271       N287   2.083       .  S
Co271      Cl315   2.403       .  S
N272        C310   1.344       .  A
N272        N279   1.319       .  A
N272       Co273   2.091       .  S
Co273       N276   2.083   1_455  S
Co273       N293   2.075       .  S
Co273       N280   2.103   1_455  S
Co273      Cl315   2.493       .  S
C274        N312   1.348       .  A
C274        C644   1.471       .  S
N275        N282   1.324       .  A
N275        N305   1.318       .  A
N275       Co308   2.075       .  S
N276        N294   1.317       .  A
N276        N312   1.325       .  A
N277        C306   1.349       .  A
N277        N287   1.325       .  A
H278        C303   1.082       .  S
N279        N300   1.324       .  A
N280        N298   1.318       .  A
N280        N285   1.331       .  A
C281        N285   1.356       .  A
C281        C309   1.460       .  S
C281        C611   1.498       .  S
N282        C297   1.350       .  A
N282       Co304   2.112   1_655  S
C283        N311   1.322       .  A
C283        C286   1.450       .  S
C283        H317   1.081       .  S
C286        N307   1.363       .  A
C286        C347   1.494       .  S
N287        N293   1.315       .  A
N288        C314   1.351       .  A
N288        N290   1.321       .  A
N288       Co304   2.116   1_655  S
N289        C303   1.335       .  A
N290        N318   1.317       .  A
N290       Co308   2.066       .  S
H291        C314   1.081       .  S
H292        C309   1.081       .  S
N294       Co308   2.078       .  S
N295        N307   1.334       .  A
N295        N311   1.320       .  A
N295       Co304   2.119       .  S
C296        N300   1.349       .  A
C296        C310   1.459       .  S
C296        C836   1.480       .  S
C297        C316   1.471       .  S
C297        H301   1.082       .  S
N298        C309   1.341       .  A
N298       Co308   2.091       .  S
C302        N318   1.342       .  A
C302        C314   1.480       .  S
C302        C323   1.491       .  S
Co304      Cl315   2.503       .  S
N305        C316   1.343       .  A
C306        C803   1.476       .  S
Co308      Cl315   2.406   1_655  S
C316        C428   1.482       .  S
C319        H329   1.082       .  S
C319        C320   1.406       .  A
C319        C324   1.411       .  A
C320        C325   1.490       .  S
C320        C321   1.411       .  A
C321        C322   1.398       .  A
C321        S326   1.806       .  S
C322        H327   1.084       .  S
C322        C323   1.408       .  A
C323        C324   1.416       .  A
C324        S328   1.805       .  S
C325        C330   1.408       .  A
C325        C334   1.405       .  A
S326        H342   1.406       .  S
S328        H339   1.407       .  S
C330        C331   1.401       .  A
C330        S335   1.809       .  S
C331        H336   1.083       .  S
C331        C332   1.410       .  A
C332        C333   1.418       .  A
C333        C334   1.407       .  A
C333        S337   1.798       .  S
C334        H338   1.084       .  S
S335        H340   1.407       .  S
S337        H341   1.401       .  S
C343        H353   1.083       .  S
C343        C344   1.410       .  A
C343        C348   1.412       .  A
C344        C349   1.492       .  S
C344        C345   1.410       .  A
C345        C346   1.388       .  A
C345        S350   1.807       .  S
C346        H351   1.082       .  S
C346        C347   1.407       .  A
C347        C348   1.416       .  A
C348        S352   1.798       .  S
C349        C354   1.415       .  A
C349        C358   1.402       .  A
S350        H366   1.407       .  S
S352        H363   1.407       .  S
C354        C355   1.413       .  A
C354        S359   1.806       .  S
C355        H360   1.082       .  S
C355        C356   1.407       .  A
C356        C357   1.412       .  A
C357        C358   1.392       .  A
C357        S361   1.805       .  S
C358        H362   1.084       .  S
S359        H364   1.407       .  S
S361        H365   1.407       .  S
C367        H377   1.084       .  S
C367        C368   1.399       .  A
C367        C372   1.400       .  A
C368        C373   1.486       .  S
C368        C369   1.415       .  A
C369        C370   1.406       .  A
C369        S374   1.803       .  S
C370        H375   1.084       .  S
C370        C371   1.402       .  A
C371        C372   1.417       .  A
C372        S376   1.802       .  S
C373        C378   1.412       .  A
C373        C382   1.400       .  A
S374        H390   1.405       .  S
S376        H387   1.405       .  S
C378        C379   1.409       .  A
C378        S383   1.806       .  S
C379        H384   1.083       .  S
C379        C380   1.403       .  A
C380        C381   1.413       .  A
C381        C382   1.404       .  A
C381        S385   1.805       .  S
C382        H386   1.083       .  S
S383        H388   1.407       .  S
S385        H389   1.406       .  S
C391        H401   1.084       .  S
C391        C392   1.402       .  A
C391        C396   1.399       .  A
C392        C397   1.490       .  S
C392        C393   1.418       .  A
C393        C394   1.403       .  A
C393        S398   1.804       .  S
C394        H399   1.084       .  S
C394        C395   1.400       .  A
C395        C396   1.416       .  A
C396        S400   1.806       .  S
C397        C402   1.415       .  A
C397        C406   1.402       .  A
S398        H414   1.406       .  S
S400        H411   1.404       .  S
C402        C403   1.409       .  A
C402        S407   1.807       .  S
C403        H408   1.083       .  S
C403        C404   1.405       .  A
C404        C405   1.411       .  A
C405        C406   1.397       .  A
C405        S409   1.803       .  S
C406        H410   1.084       .  S
S407        H412   1.407       .  S
S409        H413   1.406       .  S
C415        H425   1.084       .  S
C415        C416   1.404       .  A
C415        C420   1.404       .  A
C416        C421   1.486       .  S
C416        C417   1.412       .  A
C417        C418   1.400       .  A
C417        S422   1.805       .  S
C418        H423   1.084       .  S
C418        C419   1.406       .  A
C419        C420   1.416       .  A
C420        S424   1.798       .  S
C421        C426   1.414       .  A
C421        C430   1.398       .  A
S422        H438   1.406       .  S
S424        H435   1.407       .  S
C426        C427   1.410       .  A
C426        S431   1.805       .  S
C427        H432   1.083       .  S
C427        C428   1.402       .  A
C428        C429   1.419       .  A
C429        C430   1.397       .  A
C429        S433   1.806       .  S
C430        H434   1.084       .  S
S431        H436   1.407       .  S
S433        H437   1.408       .  S
C439        H449   1.084       .  S
C439        C440   1.406       .  A
C439        C444   1.401       .  A
C440        C445   1.499       .  S
C440        C441   1.419       .  A
C441        C442   1.408       .  A
C441        S446   1.803       .  S
C442        H447   1.084       .  S
C442        C443   1.405       .  A
C443        C444   1.410       .  A
C444        S448   1.805       .  S
C445        C450   1.417       .  A
C445        C454   1.404       .  A
S446        H462   1.406       .  S
S448        H459   1.407       .  S
C450        C451   1.409       .  A
C450        S455   1.807       .  S
C451        H456   1.083       .  S
C451        C452   1.402       .  A
C452        C453   1.416       .  A
C453        C454   1.403       .  A
C453        S457   1.804       .  S
C454        H458   1.083       .  S
S455        H460   1.407       .  S
S457        H461   1.405       .  S
C463        H473   1.084       .  S
C463        C464   1.405       .  A
C463        C468   1.401       .  A
C464        C469   1.495       .  S
C464        C465   1.417       .  A
C465        C466   1.407       .  A
C465        S470   1.804       .  S
C466        H471   1.082       .  S
C466        C467   1.404       .  A
C467        C468   1.411       .  A
C468        S472   1.804       .  S
C469        C474   1.416       .  A
C469        C478   1.403       .  A
S470        H486   1.407       .  S
S472        H483   1.407       .  S
C474        C475   1.410       .  A
C474        S479   1.807       .  S
C475        H480   1.083       .  S
C475        C476   1.402       .  A
C476        C477   1.415       .  A
C477        C478   1.404       .  A
C477        S481   1.807       .  S
C478        H482   1.083       .  S
S479        H484   1.407       .  S
S481        H485   1.407       .  S
C487        H497   1.084       .  S
C487        C488   1.408       .  A
C487        C492   1.407       .  A
C488        C493   1.493       .  S
C488        C489   1.411       .  A
C489        C490   1.398       .  A
C489        S494   1.805       .  S
C490        H495   1.085       .  S
C490        C491   1.409       .  A
C491        C492   1.416       .  A
C492        S496   1.797       .  S
C493        C498   1.415       .  A
C493        C502   1.403       .  A
S494        H510   1.406       .  S
S496        H507   1.406       .  S
C498        C499   1.409       .  A
C498        S503   1.806       .  S
C499        H504   1.082       .  S
C499        C500   1.403       .  A
C500        C501   1.415       .  A
C501        C502   1.399       .  A
C501        S505   1.807       .  S
C502        H506   1.084       .  S
S503        H508   1.407       .  S
S505        H509   1.407       .  S
C511        H521   1.073       .  S
C511        C512   1.402       .  A
C511        C516   1.397       .  A
C512        C517   1.484       .  S
C512        C513   1.410       .  A
C513        C514   1.401       .  A
C513        S518   1.803       .  S
C514        H519   1.082       .  S
C514        C515   1.406       .  A
C515        C516   1.411       .  A
C516        S520   1.804       .  S
C517        C522   1.413       .  A
C517        C526   1.401       .  A
S518        H534   1.406       .  S
S520        H531   1.406       .  S
C522        C523   1.404       .  A
C522        S527   1.805       .  S
C523        H528   1.083       .  S
C523        C524   1.400       .  A
C524        C525   1.414       .  A
C525        C526   1.399       .  A
C525        S529   1.804       .  S
C526        H530   1.084       .  S
S527        H532   1.407       .  S
S529        H533   1.405       .  S
C535        H545   1.080       .  S
C535        C536   1.403       .  A
C535        C540   1.399       .  A
C536        C541   1.479       .  S
C536        C537   1.409       .  A
C537        C538   1.397       .  A
C537        S542   1.804       .  S
C538        H543   1.083       .  S
C538        C539   1.406       .  A
C539        C540   1.412       .  A
C540        S544   1.803       .  S
C541        C546   1.409       .  A
C541        C550   1.401       .  A
S542        H558   1.406       .  S
S544        H555   1.406       .  S
C546        C547   1.401       .  A
C546        S551   1.808       .  S
C547        H552   1.082       .  S
C547        C548   1.405       .  A
C548        C549   1.415       .  A
C549        C550   1.399       .  A
C549        S553   1.801       .  S
C550        H554   1.081       .  S
S551        H556   1.407       .  S
S553        H557   1.407       .  S
C559        H569   1.083       .  S
C559        C560   1.400       .  A
C559        C564   1.404       .  A
C560        C565   1.478       .  S
C560        C561   1.409       .  A
C561        C562   1.395       .  A
C561        S566   1.806       .  S
C562        H567   1.080       .  S
C562        C563   1.408       .  A
C563        C564   1.421       .  A
C564        S568   1.807       .  S
C565        C570   1.409       .  A
C565        C574   1.403       .  A
S566        H582   1.405       .  S
S568        H579   1.406       .  S
C570        C571   1.400       .  A
C570        S575   1.807       .  S
C571        H576   1.083       .  S
C571        C572   1.404       .  A
C572        C573   1.411       .  A
C573        C574   1.400       .  A
C573        S577   1.804       .  S
C574        H578   1.084       .  S
S575        H580   1.407       .  S
S577        H581   1.405       .  S
C583        H593   1.083       .  S
C583        C584   1.401       .  A
C583        C588   1.404       .  A
C584        C589   1.473       .  S
C584        C585   1.406       .  A
C585        C586   1.394       .  A
C585        S590   1.801       .  S
C586        H591   1.083       .  S
C586        C587   1.407       .  A
C587        C588   1.417       .  A
C588        S592   1.807       .  S
C589        C594   1.406       .  A
C589        C598   1.403       .  A
S590        H606   1.405       .  S
S592        H603   1.407       .  S
C594        C595   1.399       .  A
C594        S599   1.805       .  S
C595        H600   1.084       .  S
C595        C596   1.403       .  A
C596        C597   1.411       .  A
C597        C598   1.399       .  A
C597        S601   1.806       .  S
C598        H602   1.084       .  S
S599        H604   1.407       .  S
S601        H605   1.404       .  S
C607        H617   1.083       .  S
C607        C608   1.404       .  A
C607        C612   1.403       .  A
C608        C613   1.499       .  S
C608        C609   1.417       .  A
C609        C610   1.403       .  A
C609        S614   1.804       .  S
C610        H615   1.083       .  S
C610        C611   1.407       .  A
C611        C612   1.417       .  A
C612        S616   1.791   1_655  S
C613        C618   1.416       .  A
C613        C622   1.407       .  A
S614        H630   1.407       .  S
S616        H627   1.407   1_455  S
C618        C619   1.406       .  A
C618        S623   1.806       .  S
C619        H624   1.083       .  S
C619        C620   1.403       .  A
C620        C621   1.411       .  A
C621        C622   1.403       .  A
C621        S625   1.805       .  S
C622        H626   1.084       .  S
S623        H628   1.405       .  S
S625        H629   1.406       .  S
C631        H641   1.084       .  S
C631        C632   1.402       .  A
C631        C636   1.396       .  A
C632        C637   1.484       .  S
C632        C633   1.414       .  A
C633        C634   1.404       .  A
C633        S638   1.803       .  S
C634        H639   1.083       .  S
C634        C635   1.405       .  A
C635        C636   1.411       .  A
C636        S640   1.801       .  S
C637        C642   1.410       .  A
C637        C646   1.405       .  A
S638        H654   1.406       .  S
S640        H651   1.407       .  S
C642        C643   1.404       .  A
C642        S647   1.807       .  S
C643        H648   1.083       .  S
C643        C644   1.403       .  A
C644        C645   1.410       .  A
C645        C646   1.400       .  A
C645        S649   1.804       .  S
C646        H650   1.084       .  S
S647        H652   1.407       .  S
S649        H653   1.406       .  S
C655        H665   1.084       .  S
C655        C656   1.402       .  A
C655        C660   1.401       .  A
C656        C661   1.482       .  S
C656        C657   1.414       .  A
C657        C658   1.398       .  A
C657        S662   1.803       .  S
C658        H663   1.084       .  S
C658        C659   1.400       .  A
C659        C660   1.417       .  A
C660        S664   1.804       .  S
C661        C666   1.408       .  A
C661        C670   1.404       .  A
S662        H678   1.405       .  S
S664        H675   1.405       .  S
C666        C667   1.402       .  A
C666        S671   1.808       .  S
C667        H672   1.083       .  S
C667        C668   1.406       .  A
C668        C669   1.415       .  A
C669        C670   1.403       .  A
C669        S673   1.796       .  S
C670        H674   1.084       .  S
S671        H676   1.407       .  S
S673        H677   1.406       .  S
C679        H689   1.084       .  S
C679        C680   1.401       .  A
C679        C684   1.400       .  A
C680        C685   1.483       .  S
C680        C681   1.412       .  A
C681        C682   1.402       .  A
C681        S686   1.801       .  S
C682        H687   1.084       .  S
C682        C683   1.404       .  A
C683        C684   1.414       .  A
C684        S688   1.802       .  S
C685        C690   1.412       .  A
C685        C694   1.402       .  A
S686        H702   1.404       .  S
S688        H699   1.407       .  S
C690        C691   1.404       .  A
C690        S695   1.807       .  S
C691        H696   1.083       .  S
C691        C692   1.400       .  A
C692        C693   1.412       .  A
C693        C694   1.405       .  A
C693        S697   1.807       .  S
C694        H698   1.083       .  S
S695        H700   1.407       .  S
S697        H701   1.407       .  S
C703        H713   1.084       .  S
C703        C704   1.407       .  A
C703        C708   1.403       .  A
C704        C709   1.491       .  S
C704        C705   1.414       .  A
C705        C706   1.399       .  A
C705        S710   1.804       .  S
C706        H711   1.084       .  S
C706        C707   1.403       .  A
C707        C708   1.413       .  A
C708        S712   1.802       .  S
C709        C714   1.408       .  A
C709        C718   1.403       .  A
S710        H726   1.407       .  S
S712        H723   1.406       .  S
C714        C715   1.404       .  A
C714        S719   1.807       .  S
C715        H720   1.079       .  S
C715        C716   1.412       .  A
C716        C717   1.419       .  A
C717        C718   1.405       .  A
C717        S721   1.807       .  S
C718        H722   1.083       .  S
S719        H724   1.407       .  S
S721        H725   1.407       .  S
C727        H737   1.084       .  S
C727        C728   1.402       .  A
C727        C732   1.399       .  A
C728        C733   1.478       .  S
C728        C729   1.411       .  A
C729        C730   1.397       .  A
C729        S734   1.804       .  S
C730        H735   1.085       .  S
C730        C731   1.402       .  A
C731        C732   1.413       .  A
C732        S736   1.803       .  S
C733        C738   1.408       .  A
C733        C742   1.403       .  A
S734        H750   1.406       .  S
S736        H747   1.406       .  S
C738        C739   1.403       .  A
C738        S743   1.805       .  S
C739        H744   1.083       .  S
C739        C740   1.405       .  A
C740        C741   1.410       .  A
C741        C742   1.398       .  A
C741        S745   1.804       .  S
C742        H746   1.083       .  S
S743        H748   1.407       .  S
S745        H749   1.405       .  S
C751        H761   1.084       .  S
C751        C752   1.399       .  A
C751        C756   1.395       .  A
C752        C757   1.474       .  S
C752        C753   1.415       .  A
C753        C754   1.400       .  A
C753        S758   1.806       .  S
C754        H759   1.084       .  S
C754        C755   1.400       .  A
C755        C756   1.414       .  A
C756        S760   1.804       .  S
C757        C762   1.405       .  A
C757        C766   1.403       .  A
S758        H774   1.404       .  S
S760        H771   1.402       .  S
C762        C763   1.395       .  A
C762        S767   1.799       .  S
C763        H768   1.081       .  S
C763        C764   1.405       .  A
C764        C765   1.410       .  A
C765        C766   1.402       .  A
C765        S769   1.805       .  S
C766        H770   1.083       .  S
S767        H772   1.406       .  S
S769        H773   1.407       .  S
C775        H785   1.084       .  S
C775        C776   1.404       .  A
C775        C780   1.401       .  A
C776        C781   1.476       .  S
C776        C777   1.410       .  A
C777        C778   1.394       .  A
C777        S782   1.800       .  S
C778        H783   1.084       .  S
C778        C779   1.401       .  A
C779        C780   1.411       .  A
C780        S784   1.803       .  S
C781        C786   1.407       .  A
C781        C790   1.401       .  A
S782        H798   1.404       .  S
S784        H795   1.406       .  S
C786        C787   1.400       .  A
C786        S791   1.805       .  S
C787        H792   1.082       .  S
C787        C788   1.407       .  A
C788        C789   1.415       .  A
C789        C790   1.400       .  A
C789        S793   1.801       .  S
C790        H794   1.084       .  S
S791        H796   1.406       .  S
S793        H797   1.407       .  S
C799        H809   1.084       .  S
C799        C800   1.403       .  A
C799        C804   1.402       .  A
C800        C805   1.488       .  S
C800        C801   1.415       .  A
C801        C802   1.401       .  A
C801        S806   1.803       .  S
C802        H807   1.084       .  S
C802        C803   1.400       .  A
C803        C804   1.415       .  A
C804        S808   1.805       .  S
C805        C810   1.410       .  A
C805        C814   1.403       .  A
S806        H822   1.406       .  S
S808        H819   1.405       .  S
C810        C811   1.406       .  A
C810        S815   1.807       .  S
C811        H816   1.083       .  S
C811        C812   1.406       .  A
C812        C813   1.415       .  A
C813        C814   1.403       .  A
C813        S817   1.799       .  S
C814        H818   1.084       .  S
S815        H820   1.407       .  S
S817        H821   1.406       .  S
C823        H833   1.084       .  S
C823        C824   1.402       .  A
C823        C828   1.396       .  A
C824        C829   1.484       .  S
C824        C825   1.414       .  A
C825        C826   1.403       .  A
C825        S830   1.803       .  S
C826        H831   1.083       .  S
C826        C827   1.405       .  A
C827        C828   1.412       .  A
C828        S832   1.805       .  S
C829        C834   1.413       .  A
C829        C838   1.402       .  A
S830        H846   1.406       .  S
S832        H843   1.407       .  S
C834        C835   1.404       .  A
C834        S839   1.807       .  S
C835        H840   1.083       .  S
C835        C836   1.402       .  A
C836        C837   1.415       .  A
C837        C838   1.403       .  A
C837        S841   1.808       .  S
C838        H842   1.083       .  S
S839        H844   1.407       .  S
S841        H845   1.406       .  S
C847        H857   1.084       .  S
C847        C848   1.403       .  A
C847        C852   1.400       .  A
C848        C853   1.491       .  S
C848        C849   1.416       .  A
C849        C850   1.406       .  A
C849        S854   1.804       .  S
C850        H855   1.083       .  S
C850        C851   1.406       .  A
C851        C852   1.414       .  A
C852        S856   1.806       .  S
C853        C858   1.414       .  A
C853        C862   1.402       .  A
S854        H870   1.406       .  S
S856        H867   1.407       .  S
C858        C859   1.409       .  A
C858        S863   1.806       .  S
C859        H864   1.083       .  S
C859        C860   1.403       .  A
C860        C861   1.416       .  A
C861        C862   1.402       .  A
C861        S865   1.804       .  S
C862        H866   1.084       .  S
S863        H868   1.407       .  S
S865        H869   1.405       .  S
C871        H881   1.083       .  S
C871        C872   1.408       .  A
C871        C876   1.406       .  A
C872        C877   1.496       .  S
C872        C873   1.415       .  A
C873        C874   1.400       .  A
C873        S878   1.803       .  S
C874        H879   1.084       .  S
C874        C875   1.403       .  A
C875        C876   1.413       .  A
C876        S880   1.804       .  S
C877        C882   1.415       .  A
C877        C886   1.404       .  A
S878        H894   1.406       .  S
S880        H891   1.405       .  S
C882        C883   1.411       .  A
C882        S887   1.806       .  S
C883        H888   1.083       .  S
C883        C884   1.406       .  A
C884        C885   1.413       .  A
C885        C886   1.400       .  A
C885        S889   1.805       .  S
C886        H890   1.084       .  S
S887        H892   1.407       .  S
S889        H893   1.406       .  S
