geometry optimzed in LAMMPS
_audit_creation_date              2020-11-30 
_audit_creation_method            'lammps2cif' 
_symmetry_space_group_name_H-M    'P1' 
_symmetry_Int_Tables_number       1 
_symmetry_cell_setting            triclinic 
loop_ 
_symmetry_equiv_pos_as_xyz 
  x,y,z 
_cell_length_a                    29.84934431 
_cell_length_b                    32.096405500716024 
_cell_length_c                    33.27301116052831 
_cell_angle_alpha                 89.7868630624563 
_cell_angle_beta                  90.66987254253551 
_cell_angle_gamma                 90.32347250828684 
loop_ 
_atom_site_label 
_atom_site_type_symbol 
_atom_site_fract_x 
_atom_site_fract_y 
_atom_site_fract_z 
_atom_site_charge 
N1          N  0.30817191  0.44738807  0.03990697    -0.06000
N2          N  0.34298137  0.43135656  0.05967454    -0.58200
N3          N  0.26898873  0.41844215  0.95159156    -0.05700
N4          N  0.27777832  0.38451678  0.93119412    -0.60300
N5          N  0.30292403  0.44487639  0.94984607    -0.05300
N6          N  0.33579711  0.42836889  0.92887834    -0.58100
N7          N  0.27355199  0.42191115  0.04250449    -0.05000
N8          N  0.28347838  0.38945366  0.06486636    -0.60600
C9          C  0.32648838  0.39553135  0.07578059     0.96100
C10         C  0.31900422  0.39117725  0.91646603     0.95900
N11         N  0.13318856  0.44868389  0.95380113    -0.06200
N12         N  0.10779609  0.44521110  0.92124291    -0.58700
N13         N  0.16992093  0.42556737  0.04743822    -0.04300
N14         N  0.17255418  0.40766293  0.08308652    -0.60000
N15         N  0.13836257  0.45390465  0.04693481    -0.06300
N16         N  0.11871971  0.45575752  0.08224718    -0.59000
N17         N  0.16445818  0.42017404  0.95411196    -0.04000
N18         N  0.16099239  0.39655227  0.92187606    -0.60100
Mn19       Mn  0.21863552  0.42084554  0.99889616     1.18400
C20         C  0.12526124  0.41228005  0.90171889     0.98200
C21         C  0.14026777  0.42652814  0.10441529     0.98900
N22         N  0.30529169  0.54646973  0.94630771    -0.06300
N23         N  0.33842342  0.55972175  0.92329931    -0.62600
N24         N  0.27620440  0.57681697  0.03693088    -0.05100
N25         N  0.28645456  0.60838411  0.06047500    -0.63300
N26         N  0.30883063  0.54926534  0.03705406    -0.05800
N27         N  0.34249098  0.56253760  0.06004687    -0.62800
N28         N  0.27234282  0.57365524  0.94543657    -0.04700
N29         N  0.28184041  0.60479029  0.92110605    -0.63500
Mn30       Mn  0.30763422  0.49712675  0.99324317     1.10700
C31         C  0.32270841  0.59563677  0.90697996     0.99400
C32         C  0.32740696  0.59896504  0.07520869     0.99500
N33         N  0.13910894  0.54940248  0.04148074    -0.05800
N34         N  0.11758469  0.55150676  0.07575530    -0.61200
N35         N  0.16765945  0.57257621  0.94630598    -0.05100
N36         N  0.16744069  0.58987511  0.91021795    -0.57900
N37         N  0.13598515  0.54407257  0.94855334    -0.06400
N38         N  0.11395927  0.54108622  0.91411225    -0.60700
N39         N  0.17183767  0.57686657  0.04058217    -0.05400
N40         N  0.17362852  0.59793407  0.07461871    -0.57900
Mn41       Mn  0.13475420  0.49915205  0.99768895     1.20200
Mn42       Mn  0.22144735  0.57624064  0.99227671     1.10100
Cl43       Cl  0.22121870  0.49843082  0.99544907    -0.85900
C44         C  0.13920990  0.58203710  0.09603060     0.96400
C45         C  0.13345189  0.57020770  0.89069902     0.96200
N46         N  0.87142729  0.44591777  0.04150012    -0.06000
N47         N  0.89469581  0.44506631  0.07538341    -0.58200
N48         N  0.83929495  0.41690056  0.94813589    -0.05700
N49         N  0.83851815  0.39701793  0.91347070    -0.60300
N50         N  0.87137936  0.44504948  0.94850065    -0.05300
N51         N  0.89313494  0.44481631  0.91422231    -0.58100
N52         N  0.83970877  0.41744761  0.04188298    -0.05000
N53         N  0.84068119  0.39661466  0.07611830    -0.60600
C54         C  0.87540269  0.41394406  0.09662128     0.96100
C55         C  0.87253998  0.41449870  0.89270562     0.95900
N56         N  0.70172053  0.44209762  0.94886857    -0.06200
N57         N  0.66871506  0.42788299  0.92558496    -0.58700
N58         N  0.73463988  0.41547553  0.04018060    -0.04300
N59         N  0.72401066  0.38299245  0.06253259    -0.60000
N60         N  0.70171149  0.44277174  0.03954621    -0.06300
N61         N  0.66759778  0.42828637  0.06076062    -0.59000
N62         N  0.73527546  0.41559593  0.94891102    -0.04000
N63         N  0.72649501  0.38400456  0.92507745    -0.60100
Mn64       Mn  0.78779054  0.41541041  0.99487479     1.18400
C65         C  0.68532374  0.39204657  0.91027891     0.98200
C66         C  0.68255948  0.39145412  0.07574624     0.98900
N67         N  0.87267840  0.54064217  0.94725886    -0.06300
N68         N  0.89639994  0.54105592  0.91413158    -0.62600
N69         N  0.84074295  0.57122546  0.03858997    -0.05100
N70         N  0.84016088  0.59221104  0.07259829    -0.63300
N71         N  0.87148465  0.54213497  0.04010700    -0.05800
N72         N  0.89218990  0.54245746  0.07529562    -0.62800
N73         N  0.84116898  0.56892546  0.94543683    -0.04700
N74         N  0.84289199  0.58934754  0.91098745    -0.63500
Mn75       Mn  0.87358738  0.49340619  0.99450436     1.10700
C76         C  0.87775848  0.57177472  0.89182888     0.99400
C77         C  0.87273819  0.57418888  0.09501318     0.99500
N78         N  0.70279620  0.54616484  0.03749204    -0.05800
N79         N  0.66966345  0.56222927  0.05872238    -0.61200
N80         N  0.73592894  0.57005823  0.94560089    -0.05100
N81         N  0.72480173  0.60272885  0.92377265    -0.57900
N82         N  0.70218278  0.54340801  0.94734314    -0.06400
N83         N  0.66720154  0.55852725  0.92745154    -0.60700
N84         N  0.73666854  0.57273553  0.03656070    -0.05400
N85         N  0.72795225  0.60600433  0.05786593    -0.57900
Mn86       Mn  0.70084698  0.49355471  0.99355961     1.20200
Mn87       Mn  0.78917184  0.57150466  0.99131043     1.10100
Cl88       Cl  0.78726123  0.49347109  0.99380615    -0.85900
C89         C  0.68644423  0.59932395  0.07187325     0.96400
C90         C  0.68228037  0.59501183  0.91200670     0.96200
N91         N  0.43839189  0.04122697  0.27815980    -0.06000
N92         N  0.42244243  0.06573692  0.30665194    -0.58200
N93         N  0.40773813  0.94840244  0.24527190    -0.05700
N94         N  0.37217995  0.92477174  0.25039825    -0.60300
N95         N  0.43468281  0.94663493  0.27699246    -0.05300
N96         N  0.41646541  0.92207751  0.30479759    -0.58100
N97         N  0.41168138  0.04271823  0.24630944    -0.05000
N98         N  0.37847972  0.06863565  0.25197836    -0.60600
C99         C  0.38549208  0.08321733  0.28933622     0.96100
C100        C  0.37766952  0.90814372  0.28726841     0.95900
N101        N  0.44542252  0.94787654  0.12510269    -0.06200
N102        N  0.44562825  0.91180313  0.10620748    -0.58700
N103        N  0.41748157  0.04593734  0.15331997    -0.04300
N104        N  0.39897942  0.08309342  0.15478371    -0.60000
N105        N  0.44840437  0.04517113  0.12560401    -0.06300
N106        N  0.45132650  0.08178644  0.10744362    -0.59000
N107        N  0.41332805  0.94850741  0.15174547    -0.04000
N108        N  0.39070733  0.91306116  0.15118167    -0.60100
Mn109      Mn  0.41166206  0.99642315  0.19859638     1.18400
C110        C  0.41094800  0.89060348  0.12238374     0.98200
C111        C  0.42011356  0.10504604  0.12585586     0.98900
N112        N  0.54681019  0.94437628  0.28154274    -0.06300
N113        N  0.56234547  0.92001959  0.31095347    -0.62600
N114        N  0.57765363  0.03897599  0.25324892    -0.05100
N115        N  0.61196928  0.06338252  0.26099631    -0.63300
N116        N  0.54907653  0.03895682  0.28317730    -0.05800
N117        N  0.56492436  0.06308565  0.31265607    -0.62800
N118        N  0.57564014  0.94473941  0.25177512    -0.04700
N119        N  0.60966334  0.92017790  0.25959593    -0.63500
Mn120      Mn  0.49212149  0.99259175  0.28180795     1.10700
C121        C  0.60127893  0.90448593  0.29619734     0.99400
C122        C  0.60402409  0.07859646  0.29772233     0.99500
N123        N  0.55023454  0.04410853  0.13091650    -0.05800
N124        N  0.55017262  0.08142632  0.11384811    -0.61200
N125        N  0.57742315  0.94464308  0.15933961    -0.05100
N126        N  0.59694051  0.90797425  0.16210598    -0.57900
N127        N  0.54822561  0.94499497  0.12956258    -0.06400
N128        N  0.54741735  0.90830610  0.11139935    -0.60700
N129        N  0.57977900  0.04292831  0.16041570    -0.05400
N130        N  0.60089136  0.07909242  0.16358713    -0.57900
Mn131      Mn  0.49828141  0.99539174  0.12591177     1.20200
Mn132      Mn  0.57834603  0.99287159  0.20560867     1.10100
Cl133      Cl  0.49493989  0.99407489  0.20374417    -0.85900
C134        C  0.58236051  0.10276909  0.13417764     0.96400
C135        C  0.57823368  0.88553098  0.13197332     0.96200
N136        N  0.45140887  0.04254239  0.86426688    -0.06000
N137        N  0.45091250  0.07846554  0.88350325    -0.58200
N138        N  0.42005901  0.94470676  0.83761117    -0.05700
N139        N  0.39843287  0.90876743  0.83688120    -0.60300
N140        N  0.45181396  0.94433540  0.86527694    -0.05300
N141        N  0.45298151  0.90757142  0.88339628    -0.58100
N142        N  0.42024331  0.04185017  0.83614938    -0.05000
N143        N  0.39773936  0.07711424  0.83576541    -0.60600
C144        C  0.41698650  0.09965467  0.86562886     0.96100
C145        C  0.41895030  0.88605170  0.86579320     0.95900
N146        N  0.44490299  0.94352325  0.71389279    -0.06200
N147        N  0.42971510  0.91668909  0.68641029    -0.58700
N148        N  0.41749549  0.03914875  0.74311551    -0.04300
N149        N  0.38313654  0.06352987  0.73586022    -0.60000
N150        N  0.44492919  0.03854476  0.71231237    -0.06300
N151        N  0.42818375  0.06205355  0.68284881    -0.59000
N152        N  0.41697495  0.94458299  0.74429284    -0.04000
N153        N  0.38357880  0.91837022  0.73867025    -0.60100
Mn154      Mn  0.41789708  0.99265187  0.79077822     1.18400
C155        C  0.39161061  0.90073890  0.70286187     0.98200
C156        C  0.39003040  0.07811710  0.69855574     0.98900
N157        N  0.55441522  0.94570128  0.86623769    -0.06300
N158        N  0.55489931  0.91022121  0.88649182    -0.62600
N159        N  0.58563153  0.04221013  0.83588940    -0.05100
N160        N  0.60867996  0.07739279  0.83483481    -0.63300
N161        N  0.55467890  0.04364790  0.86356788    -0.05800
N162        N  0.55551359  0.08036523  0.88148704    -0.62800
N163        N  0.58471190  0.94532137  0.83802379    -0.04700
N164        N  0.60669240  0.90980926  0.83862392    -0.63500
Mn165      Mn  0.50304624  0.99417314  0.86670599     1.10700
C166        C  0.58801161  0.88825402  0.86918244     0.99400
C167        C  0.58984918  0.10075870  0.86364202     0.99500
N168        N  0.55633874  0.03902745  0.71237708    -0.05800
N169        N  0.57116560  0.06436374  0.68365356    -0.61200
N170        N  0.58408036  0.94450493  0.74511077    -0.05100
N171        N  0.61674683  0.91793614  0.73985382    -0.57900
N172        N  0.55550289  0.94365705  0.71458741    -0.06400
N173        N  0.56959465  0.91673989  0.68728245    -0.60700
N174        N  0.58500247  0.03931988  0.74287614    -0.05400
N175        N  0.61838368  0.06519611  0.73618572    -0.57900
Mn176      Mn  0.50048263  0.99123079  0.71137473     1.20200
Mn177      Mn  0.58570659  0.99282706  0.79082989     1.10100
Cl178      Cl  0.50175729  0.99282860  0.78925202    -0.85900
C179        C  0.60961768  0.08096458  0.69949211     0.96400
C180        C  0.60750580  0.90041227  0.70408730     0.96200
N181        N  0.05597092  0.21919784  0.45121382    -0.06000
N182        N  0.07121240  0.19004051  0.42659788    -0.58200
N183        N  0.08331129  0.24658704  0.54401809    -0.05700
N184        N  0.11839536  0.23534759  0.56559937    -0.60300
N185        N  0.05357693  0.21600655  0.54214114    -0.05300
N186        N  0.06910124  0.18309623  0.56217214    -0.58100
N187        N  0.08535780  0.25002140  0.45346266    -0.05000
N188        N  0.11965753  0.24320581  0.43020061    -0.60600
C189        C  0.11075843  0.20613879  0.41328573     0.96100
C190        C  0.10929814  0.19608181  0.57728207     0.95900
N191        N  0.05567791  0.37435618  0.54714606    -0.06200
N192        N  0.05454505  0.39313006  0.58232747    -0.58700
N193        N  0.08850627  0.34672207  0.45402476    -0.04300
N194        N  0.11227535  0.34763222  0.42081019    -0.60000
N195        N  0.05937281  0.37715140  0.45380767    -0.06300
N196        N  0.06274852  0.39955339  0.42066825    -0.59000
N197        N  0.08528287  0.34423172  0.54789317    -0.04000
N198        N  0.10539012  0.34230468  0.58342817    -0.60100
Mn199      Mn  0.08638477  0.29736461  0.49999179     1.18400
C200        C  0.08620266  0.37330781  0.60442543     0.98200
C201        C  0.09615258  0.38104609  0.40045918     0.98900
N202        N  0.94258299  0.22029923  0.53939387    -0.06300
N203        N  0.92484363  0.19059528  0.56236200    -0.62600
N204        N  0.91737824  0.25406748  0.44808452    -0.05100
N205        N  0.88164635  0.24677070  0.42569118    -0.63300
N206        N  0.94402781  0.22136270  0.44870895    -0.05800
N207        N  0.92540028  0.19072590  0.42733312    -0.62800
N208        N  0.91599283  0.25301724  0.53889165    -0.04700
N209        N  0.88108168  0.24676519  0.56180261    -0.63500
Mn210      Mn  0.99902815  0.21766688  0.49524301     1.19100
C211        C  0.88677827  0.20816464  0.57670714     0.99400
C212        C  0.88674915  0.20750228  0.41258446     0.99500
N213        N  0.95591801  0.37985185  0.44961137    -0.05800
N214        N  0.95604574  0.40186217  0.41607250    -0.61200
N215        N  0.92178514  0.35031202  0.54116343    -0.05100
N216        N  0.89798571  0.35161900  0.57420110    -0.57900
N217        N  0.95317241  0.37906232  0.54208199    -0.06400
N218        N  0.95142602  0.40066731  0.57566857    -0.60700
N219        N  0.92373187  0.35179549  0.44847051    -0.05400
N220        N  0.90089831  0.35441769  0.41440180    -0.57900
Mn221      Mn  0.00627562  0.37918165  0.49806896     1.20200
Mn222      Mn  0.91915323  0.30272717  0.49409957     1.10100
Cl223      Cl  0.00267225  0.29853132  0.49671590    -0.85900
C224        C  0.92118596  0.38598334  0.39465637     0.96400
C225        C  0.91654206  0.38341479  0.59525346     0.96200
N226        N  0.04959622  0.61430886  0.44662382    -0.06000
N227        N  0.05138082  0.59484398  0.41177145    -0.58200
N228        N  0.08132473  0.63928614  0.54092180    -0.05700
N229        N  0.10562161  0.63692589  0.57416794    -0.60300
N230        N  0.05131509  0.60931442  0.53980267    -0.05300
N231        N  0.05439017  0.58590849  0.57237075    -0.58100
N232        N  0.07930051  0.64450816  0.44802729    -0.05000
N233        N  0.10203571  0.64628783  0.41438183    -0.60600
C234        C  0.08454974  0.61500823  0.39204689     0.96100
C235        C  0.08874989  0.60326217  0.59339357     0.95900
N236        N  0.05299576  0.76721902  0.54635210    -0.06200
N237        N  0.06993339  0.79564562  0.57145841    -0.58700
N238        N  0.07818975  0.74053536  0.45324689    -0.04300
N239        N  0.11002466  0.74786028  0.42725864    -0.60000
N240        N  0.04977782  0.77180133  0.45450782    -0.06300
N241        N  0.06322987  0.80182751  0.42962621    -0.59000
N242        N  0.08082604  0.73551900  0.54444523    -0.04000
N243        N  0.11543804  0.74084263  0.56856738    -0.60100
Mn244      Mn  0.08053399  0.68971859  0.49669250     1.18400
C245        C  0.10854449  0.77796484  0.58565957     0.98200
C246        C  0.10059097  0.78578848  0.41237722     0.98900
N247        N  0.94784882  0.60711930  0.54000645    -0.06300
N248        N  0.94759805  0.58410020  0.57287483    -0.62600
N249        N  0.91554908  0.64096531  0.44832518    -0.05100
N250        N  0.89272212  0.64162872  0.41412092    -0.63300
N251        N  0.94674706  0.61236386  0.44729313    -0.05800
N252        N  0.94601931  0.59307110  0.41243076    -0.62800
N253        N  0.91624512  0.63532465  0.54129650    -0.04700
N254        N  0.89340473  0.63180887  0.57484968    -0.63500
Mn255      Mn  0.99885539  0.60914720  0.49345487     1.10700
C256        C  0.91301770  0.59940564  0.59400372     0.99400
C257        C  0.91192669  0.61134498  0.39213326     0.99500
N258        N  0.93873188  0.77003122  0.45613693    -0.05800
N259        N  0.91999658  0.80180981  0.43657355    -0.61200
N260        N  0.91308590  0.73273012  0.54540637    -0.05100
N261        N  0.87838262  0.73836395  0.56863936    -0.57900
N262        N  0.94050819  0.76517431  0.54693200    -0.06400
N263        N  0.92336936  0.79405070  0.57083951    -0.60700
N264        N  0.91127777  0.73764442  0.45495343    -0.05400
N265        N  0.87465087  0.74641124  0.43452511    -0.57900
Mn266      Mn  0.99564312  0.77050114  0.50118439     1.20200
Mn267      Mn  0.91340485  0.68620002  0.49748988     1.10100
Cl268      Cl  0.99697030  0.68965000  0.49748650    -0.85900
C269        C  0.88025977  0.78609477  0.42276203     0.96400
C270        C  0.88494073  0.77626535  0.58477050     0.96200
C271        C  0.71055917  0.83535938  0.69122807    -0.28100
C272        C  0.72320579  0.84532348  0.65176942     0.05500
C273        C  0.69331101  0.86873886  0.62759697     0.25100
C274        C  0.65295296  0.88350932  0.64347195    -0.12600
C275        C  0.64191010  0.87544071  0.68364705    -0.26600
C276        C  0.67056274  0.85016545  0.70701901     0.35900
C277        C  0.76687485  0.82968441  0.63641666     0.05500
F278        F  0.70315999  0.87766716  0.58880508    -0.20400
H279        H  0.63168422  0.90334324  0.62506550     0.15300
F280        F  0.66087245  0.84131644  0.74593874    -0.24100
H281        H  0.73248750  0.81716115  0.71045269     0.17100
C282        C  0.79772091  0.85559093  0.61610946     0.25100
C283        C  0.83814963  0.83920118  0.60159505    -0.12600
C284        C  0.84847130  0.79687475  0.60723832    -0.26600
C285        C  0.81856401  0.77178935  0.62924965     0.36000
C286        C  0.77846318  0.78795945  0.64343486    -0.28200
F287        F  0.78892697  0.89664306  0.61041107    -0.20400
H288        H  0.86038092  0.85912967  0.58447366     0.15300
F289        F  0.82745533  0.73091111  0.63608534    -0.24100
H290        H  0.75578494  0.76734924  0.65916213     0.17100
C291        C  0.30923196  0.85528444  0.62603526    -0.28100
C292        C  0.27617361  0.83909500  0.65189748     0.05500
C293        C  0.28587473  0.83727478  0.69331200     0.25100
C294        C  0.32571778  0.85409388  0.70861872    -0.12600
C295        C  0.35712231  0.87350985  0.68340529    -0.26600
C296        C  0.34960065  0.87215487  0.64156960     0.35900
C297        C  0.23122919  0.82519841  0.63641494     0.05500
F298        F  0.25544291  0.82194680  0.71960047    -0.20400
H299        H  0.33078407  0.85403495  0.74087810     0.15300
F300        F  0.37969771  0.88916860  0.61594879    -0.24100
H301        H  0.30329577  0.85581229  0.59390798     0.17100
C302        C  0.20520242  0.85046213  0.61044345     0.25100
C303        C  0.16261099  0.83709084  0.59693923    -0.12600
C304        C  0.14546241  0.79814456  0.60870613    -0.26600
C305        C  0.17104016  0.77345535  0.63537847     0.36000
C306        C  0.21318000  0.78686572  0.64904983    -0.28200
F307        F  0.22109670  0.88789233  0.59777834    -0.20400
H308        H  0.14431027  0.85600589  0.57540096     0.15300
F309        F  0.15611135  0.73517166  0.64671762    -0.24100
H310        H  0.23235634  0.76656655  0.66864773     0.17100
C311        C  0.69755826  0.11173064  0.62330368    -0.28100
C312        C  0.72542567  0.13822023  0.64649481     0.05500
C313        C  0.71106203  0.14924002  0.68528406     0.25100
C314        C  0.67096157  0.13330674  0.70051940    -0.12600
C315        C  0.64428628  0.10546243  0.67808054    -0.26600
C316        C  0.65770172  0.09508235  0.63906243     0.35900
C317        C  0.76913586  0.15430940  0.63053707     0.05500
F318        F  0.73709836  0.17322558  0.70976705    -0.20400
H319        H  0.66194081  0.14095506  0.73103518     0.15300
F320        F  0.63439225  0.06627716  0.61748162    -0.24100
H321        H  0.70706019  0.10312157  0.59320905     0.17100
C322        C  0.79878395  0.12883606  0.60875901     0.25100
C323        C  0.83894984  0.14533468  0.59329499    -0.12600
C324        C  0.85038492  0.18735625  0.59944713    -0.26600
C325        C  0.82173205  0.21213615  0.62251970     0.36000
C326        C  0.78160988  0.19600867  0.63729152    -0.28200
F327        F  0.78904306  0.08805001  0.60229343    -0.20400
H328        H  0.86007305  0.12577324  0.57519230     0.15300
F329        F  0.83189049  0.25272537  0.62984748    -0.24100
H330        H  0.75965197  0.21678183  0.65312064     0.17100
C331        C  0.28202227  0.13544486  0.67952449    -0.28100
C332        C  0.26977012  0.12136868  0.64101652     0.05500
C333        C  0.30080668  0.09747838  0.61935174     0.25100
C334        C  0.34206778  0.08621471  0.63681025    -0.12600
C335        C  0.35317024  0.09867278  0.67605540    -0.26600
C336        C  0.32321316  0.12436895  0.69685152     0.35900
C337        C  0.22595438  0.13401757  0.62284518     0.05500
F338        F  0.29045194  0.08341545  0.58195465    -0.20400
H339        H  0.36408872  0.06582032  0.62056119     0.15300
F340        F  0.33337784  0.13794652  0.73450431    -0.24100
H341        H  0.25961050  0.15511691  0.69628020     0.17100
C342        C  0.18537728  0.13122993  0.64427523     0.25100
C343        C  0.14570866  0.14848039  0.62823317    -0.12600
C344        C  0.14613618  0.16857546  0.59073490    -0.26600
C345        C  0.18586510  0.16872687  0.56839001     0.36000
C346        C  0.22520048  0.15186627  0.58434538    -0.28200
F347        F  0.18432647  0.11280838  0.68104636    -0.20400
H348        H  0.11554506  0.14815899  0.64591098     0.15300
F349        F  0.18720529  0.18727293  0.53167136    -0.24100
H350        H  0.25569021  0.15473707  0.56728286     0.17100
C351        C  0.70956543  0.84783260  0.31712637    -0.28100
C352        C  0.71768657  0.85698648  0.35769046     0.05500
C353        C  0.68448870  0.87824805  0.37931000     0.25100
C354        C  0.64448561  0.89077509  0.36019663    -0.12600
C355        C  0.63726379  0.88288651  0.31915667    -0.26600
C356        C  0.67011914  0.86070127  0.29801582     0.35900
C357        C  0.76059144  0.84349943  0.37685765     0.05500
F358        F  0.69178763  0.88897170  0.41825479    -0.20400
H359        H  0.62047537  0.90886190  0.37686134     0.15300
F360        F  0.66500720  0.85276464  0.25822371    -0.24100
H361        H  0.73418069  0.83104121  0.29996266     0.17100
C362        C  0.76029162  0.81987239  0.41243377     0.25100
C363        C  0.80015815  0.80380731  0.42818820    -0.12600
C364        C  0.84123240  0.81050782  0.40881104    -0.26600
C365        C  0.84206214  0.83488375  0.37381050     0.36000
C366        C  0.80195538  0.85124942  0.35795230    -0.28200
F367        F  0.72113461  0.80976589  0.43049134    -0.20400
H368        H  0.79867771  0.78453169  0.45489379     0.15300
F369        F  0.88088130  0.84042504  0.35361071    -0.24100
H370        H  0.80296824  0.86904886  0.33030000     0.17100
C371        C  0.29236450  0.86950176  0.36389151    -0.28100
C372        C  0.25865068  0.85340417  0.33814834     0.05500
C373        C  0.26687996  0.85203979  0.29670713     0.25100
C374        C  0.30713244  0.86725479  0.28136604    -0.12600
C375        C  0.34030716  0.88482266  0.30661733    -0.26600
C376        C  0.33298637  0.88498190  0.34835149     0.35900
C377        C  0.21494330  0.83816293  0.35414528     0.05500
F378        F  0.23496409  0.83801551  0.27060738    -0.20400
H379        H  0.31155345  0.86680039  0.24912826     0.15300
F380        F  0.36379893  0.90192848  0.37384226    -0.24100
H381        H  0.28696849  0.87054166  0.39595226     0.17100
C382        C  0.19877398  0.79822650  0.34413126     0.25100
C383        C  0.15875882  0.78336425  0.36031149    -0.12600
C384        C  0.13372077  0.80765840  0.38689361    -0.26600
C385        C  0.14824366  0.84849887  0.39516546     0.36000
C386        C  0.18879556  0.86343906  0.37916876    -0.28200
F387        F  0.22295579  0.77245497  0.32058644    -0.20400
H388        H  0.14853143  0.75172694  0.35379592     0.15300
F389        F  0.12507833  0.87280036  0.42082512    -0.24100
H390        H  0.20016554  0.89449233  0.38679750     0.17100
C391        C  0.69292103  0.11120672  0.37462712    -0.28100
C392        C  0.72250644  0.13359563  0.34961406     0.05500
C393        C  0.70972813  0.14056368  0.30936688     0.25100
C394        C  0.66866114  0.12614264  0.29472330    -0.12600
C395        C  0.63963405  0.10265086  0.31892150    -0.26600
C396        C  0.65175293  0.09565491  0.35939882     0.35900
C397        C  0.76606878  0.15088207  0.36496224     0.05500
F398        F  0.73809549  0.15943584  0.28331053    -0.20400
H399        H  0.66069755  0.13128375  0.26319139     0.15300
F400        F  0.62543364  0.07180005  0.38334867    -0.24100
H401        H  0.70195556  0.10536106  0.40573593     0.17100
C402        C  0.77728597  0.19273726  0.35714332     0.25100
C403        C  0.81806154  0.20935162  0.37042447    -0.12600
C404        C  0.84888174  0.18521919  0.39245047    -0.26600
C405        C  0.83839278  0.14303095  0.39993492     0.36000
C406        C  0.79718782  0.12610520  0.38633574    -0.28200
F407        F  0.74790842  0.21836843  0.33798936    -0.20400
H408        H  0.82485484  0.24199731  0.36466554     0.15300
F409        F  0.86667505  0.11884894  0.42197111    -0.24100
H410        H  0.78948975  0.09370357  0.39260976     0.17100
C411        C  0.28295131  0.14869466  0.30332713    -0.28100
C412        C  0.26863648  0.13634676  0.34167220     0.05500
C413        C  0.29626120  0.10957421  0.36463535     0.25100
C414        C  0.33660396  0.09475691  0.34889178    -0.12600
C415        C  0.34992901  0.10629369  0.31008147    -0.26600
C416        C  0.32313555  0.13415367  0.28780617     0.35900
C417        C  0.22555945  0.15261979  0.35739998     0.05500
F418        F  0.28426425  0.09762692  0.40217333    -0.20400
H419        H  0.35627773  0.07265229  0.36625048     0.15300
F420        F  0.33511026  0.14630209  0.25027840    -0.24100
H421        H  0.26239196  0.16891391  0.28478855     0.17100
C422        C  0.21563931  0.19522610  0.35364392     0.25100
C423        C  0.17594603  0.21099221  0.36882926    -0.12600
C424        C  0.14545335  0.18524171  0.38924393    -0.26600
C425        C  0.15450164  0.14240002  0.39241289     0.36000
C426        C  0.19413326  0.12622614  0.37623622    -0.28200
F427        F  0.24559018  0.22233209  0.33749367    -0.20400
H428        H  0.17019056  0.24421272  0.36651051     0.15300
F429        F  0.12688635  0.11682852  0.41336879    -0.24100
H430        H  0.20071126  0.09315987  0.37915810     0.17100
C431        C  0.59678897  0.68034492  0.09071481    -0.28100
C432        C  0.62279711  0.71185289  0.10916281     0.05500
C433        C  0.66759027  0.70311941  0.11960845     0.25100
C434        C  0.68620862  0.66465233  0.11055156    -0.12600
C435        C  0.66125403  0.63391819  0.09024114    -0.26600
C436        C  0.61581038  0.64157518  0.08126213     0.35900
C437        C  0.60491477  0.75450239  0.11608352     0.05500
F438        F  0.69459542  0.73288245  0.13598298    -0.20400
H439        H  0.72143069  0.65978608  0.11739233     0.15300
F440        F  0.59080696  0.61301146  0.06091387    -0.24100
H441        H  0.56206439  0.68618362  0.08263838     0.17100
C442        C  0.58445576  0.77775158  0.08493133     0.25100
C443        C  0.57471109  0.82013927  0.09041592    -0.12600
C444        C  0.58569128  0.84013343  0.12675758    -0.26600
C445        C  0.60393341  0.81620773  0.15845303     0.36000
C446        C  0.61295805  0.77397680  0.15319363    -0.28200
F447        F  0.57624626  0.76026645  0.04850000    -0.20400
H448        H  0.56004792  0.83766740  0.06575480     0.15300
F449        F  0.61319035  0.83350591  0.19472931    -0.24100
H450        H  0.62763085  0.75661163  0.17800656     0.17100
C451        C  0.60259729  0.30061273  0.08159985    -0.28100
C452        C  0.61883908  0.27985807  0.11612368     0.05500
C453        C  0.65013636  0.30076753  0.14105007     0.25100
C454        C  0.66822899  0.33921487  0.12930987    -0.12600
C455        C  0.65425500  0.35842934  0.09345371    -0.26600
C456        C  0.61990414  0.33967427  0.07044686     0.35900
C457        C  0.60797180  0.23484356  0.12292214     0.05500
F458        F  0.66481705  0.28313735  0.17589654    -0.20400
H459        H  0.69485038  0.35309016  0.14729648     0.15300
F460        F  0.60637960  0.35700685  0.03509082    -0.24100
H461        H  0.57885928  0.28531558  0.06158182     0.17100
C462        C  0.56414647  0.21882869  0.11796155     0.25100
C463        C  0.55605926  0.17575769  0.12079361    -0.12600
C464        C  0.59116961  0.14801404  0.12958750    -0.26600
C465        C  0.63452585  0.16406946  0.13571463     0.36000
C466        C  0.64283373  0.20679577  0.13181429    -0.28200
F467        F  0.52909362  0.24478283  0.11112459    -0.20400
H468        H  0.52201791  0.16410329  0.11693776     0.15300
F469        F  0.66925002  0.13822866  0.14417032    -0.24100
H470        H  0.67713986  0.21786527  0.13484702     0.17100
C471        C  0.57514788  0.77561580  0.90235088    -0.28100
C472        C  0.61306537  0.75728277  0.88509761     0.05500
C473        C  0.64373970  0.78327261  0.86477687     0.25100
C474        C  0.63533776  0.82570705  0.86016171    -0.12600
C475        C  0.59748219  0.84383984  0.87723320    -0.26600
C476        C  0.56809014  0.81860649  0.89954822     0.35900
C477        C  0.62177015  0.71173255  0.88942765     0.05500
F478        F  0.68267976  0.76812555  0.85024301    -0.20400
H479        H  0.65896995  0.84457104  0.84346274     0.15300
F480        F  0.53224427  0.83521323  0.91825513    -0.24100
H481        H  0.55063021  0.75672947  0.91789901     0.17100
C482        C  0.61455145  0.69068350  0.92614050     0.25100
C483        C  0.62972417  0.64988826  0.93147337    -0.12600
C484        C  0.65312598  0.62980061  0.90088566    -0.26600
C485        C  0.65803467  0.64951917  0.86364347     0.36000
C486        C  0.64121397  0.68960217  0.85760652    -0.28200
F487        F  0.59667675  0.71043468  0.95814256    -0.20400
H488        H  0.62692632  0.63543436  0.96083300     0.15300
F489        F  0.68171984  0.63110699  0.83407841    -0.24100
H490        H  0.64564234  0.70417917  0.82848014     0.17100
C491        C  0.60553591  0.30236568  0.90131544    -0.28100
C492        C  0.62954541  0.27673930  0.87504343     0.05500
C493        C  0.66556873  0.29402462  0.85365477     0.25100
C494        C  0.68040642  0.33440652  0.86197404    -0.12600
C495        C  0.65914916  0.35856432  0.89105716    -0.26600
C496        C  0.62019379  0.34310943  0.90931532     0.35900
C497        C  0.61928239  0.23146168  0.87255009     0.05500
F498        F  0.68791770  0.27114368  0.82621465    -0.20400
H499        H  0.71064368  0.34575586  0.84781238     0.15300
F500        F  0.59952297  0.36535266  0.93827430    -0.24100
H501        H  0.57749514  0.28987617  0.91784444     0.17100
C502        C  0.65366607  0.20170368  0.87674152     0.25100
C503        C  0.64385595  0.15914024  0.87405867    -0.12600
C504        C  0.59959552  0.14546985  0.86851146    -0.26600
C505        C  0.56520849  0.17494135  0.86467251     0.36000
C506        C  0.57496714  0.21757460  0.86689834    -0.28200
F507        F  0.69659556  0.21367481  0.88450563    -0.20400
H508        H  0.67076681  0.13676710  0.87678700     0.15300
F509        F  0.52262461  0.16251555  0.85640723    -0.24100
H510        H  0.54801288  0.23981522  0.86334174     0.17100
C511        C  0.92006274  0.55422700  0.78679971    -0.28100
C512        C  0.89500170  0.58350105  0.76480188     0.05500
C513        C  0.86698659  0.61112126  0.78527045     0.25100
C514        C  0.86300436  0.60835013  0.82694083    -0.12600
C515        C  0.88714224  0.57829991  0.84885702    -0.26600
C516        C  0.91674301  0.55194180  0.82847269     0.35900
C517        C  0.89903491  0.58546319  0.72066997     0.05500
F518        F  0.84374240  0.64095057  0.76504343    -0.20400
H519        H  0.84033442  0.62924578  0.84195788     0.15300
F520        F  0.94168017  0.52319614  0.84848561    -0.24100
H521        H  0.94181327  0.53262481  0.77159555     0.17100
C522        C  0.94155830  0.58653678  0.70306156     0.25100
C523        C  0.94538615  0.58869924  0.66153651    -0.12600
C524        C  0.90718738  0.59120069  0.63690120    -0.26600
C525        C  0.86455958  0.59049671  0.65423373     0.36000
C526        C  0.86054903  0.58689112  0.69591893    -0.28200
F527        F  0.97928950  0.58791703  0.72616140    -0.20400
H528        H  0.97887896  0.59084273  0.64850339     0.15300
F529        F  0.82703557  0.59347342  0.63095887    -0.24100
H530        H  0.82745225  0.58570384  0.70892298     0.17100
C531        C  0.87605936  0.62416473  0.19762479    -0.28100
C532        C  0.88325627  0.58910410  0.22223828     0.05500
C533        C  0.88561530  0.54944646  0.20479733     0.25100
C534        C  0.88345839  0.54523213  0.16323405    -0.12600
C535        C  0.87740810  0.58021565  0.13848908    -0.26600
C536        C  0.87267148  0.61970216  0.15589866     0.35900
C537        C  0.88972239  0.59407493  0.26592462     0.05500
F538        F  0.88892484  0.51480304  0.22810899    -0.20400
H539        H  0.88517120  0.51422881  0.15031401     0.15300
F540        F  0.86579227  0.65395322  0.13262509    -0.24100
H541        H  0.87383086  0.65471625  0.21057837     0.17100
C542        C  0.92772605  0.57728188  0.28513305     0.25100
C543        C  0.93393883  0.58211581  0.32638258    -0.12600
C544        C  0.90274397  0.60424792  0.34912628    -0.26600
C545        C  0.86479204  0.62126179  0.32987314     0.36000
C546        C  0.85838997  0.61611124  0.28852092    -0.28200
F547        F  0.95960409  0.55738626  0.26377808    -0.20400
H548        H  0.96384593  0.56939222  0.34030621     0.15300
F549        F  0.83393253  0.64284747  0.35085599    -0.24100
H550        H  0.82897926  0.62919018  0.27412820     0.17100
C551        C  0.85409975  0.38518019  0.78372099    -0.28100
C552        C  0.89220035  0.40256360  0.76560991     0.05500
C553        C  0.92433947  0.42292970  0.78990533     0.25100
C554        C  0.91838610  0.42536462  0.83140483    -0.12600
C555        C  0.88028252  0.40792391  0.84944000    -0.26600
C556        C  0.84824353  0.38743716  0.82515462     0.35900
C557        C  0.89810844  0.39850689  0.72162434     0.05500
F558        F  0.96170409  0.44007448  0.77375681    -0.20400
H559        H  0.94363730  0.44116727  0.84950622     0.15300
F560        F  0.81047737  0.37072818  0.84102967    -0.24100
H561        H  0.82823878  0.37028305  0.76561506     0.17100
C562        C  0.88926612  0.36018592  0.70262503     0.25100
C563        C  0.89349486  0.35646700  0.66126994    -0.12600
C564        C  0.90795625  0.39028925  0.63802549    -0.26600
C565        C  0.91750264  0.42857721  0.65670075     0.36000
C566        C  0.91197350  0.43275487  0.69819940    -0.28200
F567        F  0.87801148  0.32575265  0.72413783    -0.20400
H568        H  0.88710360  0.32634443  0.64761153     0.15300
F569        F  0.93164425  0.46189611  0.63489788    -0.24100
H570        H  0.91824596  0.46278800  0.71193491     0.17100
C571        C  0.94601642  0.39664202  0.28481544    -0.28100
C572        C  0.90286943  0.39795379  0.26764204     0.05500
C573        C  0.86535892  0.39679336  0.29303485     0.25100
C574        C  0.87134662  0.39390457  0.33468706    -0.12600
C575        C  0.91458565  0.39321331  0.35151296    -0.26600
C576        C  0.95189658  0.39474034  0.32631309     0.35900
C577        C  0.89759894  0.40010072  0.22336805     0.05500
F578        F  0.82305144  0.39877160  0.27772649    -0.20400
H579        H  0.84223206  0.39214466  0.35386803     0.15300
F580        F  0.99406524  0.39161318  0.34165099    -0.24100
H581        H  0.97539622  0.39599664  0.26602407     0.17100
C582        C  0.92443190  0.42726705  0.20051462     0.25100
C583        C  0.91852224  0.42984860  0.15899640    -0.12600
C584        C  0.88525773  0.40608506  0.13947922    -0.26600
C585        C  0.85935074  0.37792579  0.16206031     0.36000
C586        C  0.86586442  0.37481621  0.20355185    -0.28200
F587        F  0.95496594  0.45286788  0.21840276    -0.20400
H588        H  0.93893435  0.45171572  0.14237040     0.15300
F589        F  0.82698369  0.35417598  0.14438159    -0.24100
H590        H  0.84565010  0.35260719  0.22036864     0.17100
C591        C  0.35038205  0.69265841  0.85035863    -0.28100
C592        C  0.38490839  0.70913609  0.87464793     0.05500
C593        C  0.40499870  0.68352586  0.90410292     0.25100
C594        C  0.38805514  0.64340249  0.91118632    -0.12600
C595        C  0.35070745  0.62864200  0.88937616    -0.26600
C596        C  0.33317146  0.65287164  0.85779508     0.35900
C597        C  0.39482499  0.75441656  0.87285997     0.05500
F598        F  0.43767139  0.69875699  0.92877697    -0.20400
H599        H  0.40120212  0.62559367  0.93647026     0.15300
F600        F  0.29696358  0.63937808  0.83636179    -0.24100
H601        H  0.33471940  0.71177873  0.82725905     0.17100
C602        C  0.43868360  0.76979657  0.86832636     0.25100
C603        C  0.44655477  0.81287366  0.86704983    -0.12600
C604        C  0.41101696  0.84103407  0.87071022    -0.26600
C605        C  0.36725855  0.82567886  0.87475903     0.36000
C606        C  0.35932852  0.78278615  0.87606986    -0.28200
F607        F  0.47347451  0.74329778  0.86349404    -0.20400
H608        H  0.47995711  0.82426508  0.86133325     0.15300
F609        F  0.33218590  0.85221115  0.87749199    -0.24100
H610        H  0.32534305  0.77163794  0.87975057     0.17100
C611        C  0.36523490  0.30089001  0.85895699    -0.28100
C612        C  0.37762756  0.27417831  0.89086751     0.05500
C613        C  0.37645923  0.28948662  0.93045257     0.25100
C614        C  0.36170654  0.32985254  0.93782125    -0.12600
C615        C  0.34679302  0.35537995  0.90618731    -0.26600
C616        C  0.34905976  0.34095568  0.86659525     0.35900
C617        C  0.38859445  0.22974097  0.88333789     0.05500
F618        F  0.38580373  0.26438775  0.96235198    -0.20400
H619        H  0.35859258  0.34010137  0.96867170     0.15300
F620        F  0.33306935  0.36452996  0.83573478    -0.24100
H621        H  0.36635413  0.29011265  0.82814283     0.17100
C622        C  0.36169283  0.20522856  0.85750887     0.25100
C623        C  0.37105951  0.16300930  0.85217833    -0.12600
C624        C  0.40666288  0.14400889  0.87312785    -0.26600
C625        C  0.43302528  0.16827648  0.89955402     0.36000
C626        C  0.42455066  0.21079357  0.90389611    -0.28200
F627        F  0.32532433  0.22157896  0.83847270    -0.20400
H628        H  0.35002004  0.14506399  0.83186452     0.15300
F629        F  0.46718888  0.15117822  0.92110874    -0.24100
H630        H  0.44609126  0.22892206  0.92365863     0.17100
C631        C  0.35611478  0.78433565  0.12136836    -0.28100
C632        C  0.39312572  0.75803492  0.11555861     0.05500
C633        C  0.43566206  0.77627905  0.11000655     0.25100
C634        C  0.44069492  0.81961600  0.11025943    -0.12600
C635        C  0.40386602  0.84550055  0.11732453    -0.26600
C636        C  0.36150827  0.82751947  0.12313019     0.35900
C637        C  0.38592361  0.71215554  0.11284940     0.05500
F638        F  0.47265229  0.75239640  0.10567978    -0.20400
H639        H  0.47381602  0.83286625  0.10660919     0.15300
F640        F  0.32523502  0.85166304  0.13014536    -0.24100
H641        H  0.32272190  0.77154903  0.12422416     0.17100
C642        C  0.35438858  0.69200006  0.13756111     0.25100
C643        C  0.33845542  0.65231015  0.12763353    -0.12600
C644        C  0.35537464  0.63120448  0.09436309    -0.26600
C645        C  0.39130979  0.64870395  0.07317295     0.36000
C646        C  0.40594726  0.68918095  0.08196446    -0.28200
F647        F  0.33687203  0.71165931  0.16979694    -0.20400
H648        H  0.31077288  0.63917350  0.14431718     0.15300
F649        F  0.40833897  0.62892232  0.04081046    -0.24100
H650        H  0.43021570  0.70361875  0.06229186     0.17100
C651        C  0.40227525  0.21817145  0.15108518    -0.28100
C652        C  0.40296512  0.23703162  0.11299173     0.05500
C653        C  0.41323577  0.21263404  0.07925913     0.25100
C654        C  0.42024192  0.16968497  0.08357591    -0.12600
C655        C  0.41636821  0.15059069  0.12139211    -0.26600
C656        C  0.40883128  0.17541128  0.15533336     0.35900
C657        C  0.38774575  0.28069356  0.10840714     0.05500
F658        F  0.41371476  0.22975402  0.04191717    -0.20400
H659        H  0.42677489  0.15112028  0.05723509     0.15300
F660        F  0.40806237  0.15837643  0.19272428    -0.24100
H661        H  0.39534456  0.23652798  0.17754851     0.17100
C662        C  0.34605467  0.29219834  0.12393585     0.25100
C663        C  0.32910684  0.33180422  0.11665721    -0.12600
C664        C  0.35250850  0.36063580  0.09291648    -0.26600
C665        C  0.39523318  0.35006784  0.07878091     0.36000
C666        C  0.41274307  0.31027473  0.08667795    -0.28200
F667        F  0.31988264  0.26402553  0.14334905    -0.20400
H668        H  0.29575927  0.33894333  0.12724776     0.15300
F669        F  0.41825932  0.37655913  0.05465059    -0.24100
H670        H  0.44500822  0.30198110  0.07454501     0.17100
C671        C  0.14083440  0.60631178  0.69732832    -0.28100
C672        C  0.11236917  0.57931110  0.71853712     0.05500
C673        C  0.07882560  0.55725799  0.69727128     0.25100
C674        C  0.07321476  0.56338664  0.65598891    -0.12600
C675        C  0.10005663  0.59221212  0.63532919    -0.26600
C676        C  0.13470645  0.61302229  0.65624072     0.35900
C677        C  0.11652816  0.57649144  0.76289657     0.05500
F678        F  0.04968884  0.53169478  0.71654657    -0.20400
H679        H  0.04633203  0.54685492  0.64053510     0.15300
F680        F  0.16189922  0.64073487  0.63739555    -0.24100
H681        H  0.16757759  0.62314644  0.71293603     0.17100
C682        C  0.11528258  0.53787191  0.78302613     0.25100
C683        C  0.11902873  0.53633352  0.82487584    -0.12600
C684        C  0.12586128  0.57294299  0.84711528    -0.26600
C685        C  0.12832411  0.61132187  0.82712008     0.36000
C686        C  0.12282331  0.61310578  0.78546209    -0.28200
F687        F  0.11289986  0.50158059  0.76226872    -0.20400
H688        H  0.11879419  0.50633152  0.83981573     0.15300
F689        F  0.13575591  0.64704710  0.84790349    -0.24100
H690        H  0.12374195  0.64330324  0.77072685     0.17100
C691        C  0.15934891  0.60188343  0.20658461    -0.28100
C692        C  0.11594237  0.59689396  0.22196024     0.05500
C693        C  0.08001383  0.58973510  0.19502688     0.25100
C694        C  0.08788451  0.58578564  0.15394744    -0.12600
C695        C  0.13127470  0.59037719  0.13878930    -0.26600
C696        C  0.16701537  0.59905179  0.16536258     0.35900
C697        C  0.10862823  0.60022995  0.26586324     0.05500
F698        F  0.03717720  0.58752663  0.20813838    -0.20400
H699        H  0.05992493  0.57927893  0.13383505     0.15300
F700        F  0.20960638  0.60270464  0.15184685    -0.24100
H701        H  0.18766283  0.60728273  0.22669204     0.17100
C702        C  0.08149895  0.57144669  0.28660899     0.25100
C703        C  0.07460152  0.57583288  0.32785889    -0.12600
C704        C  0.09496310  0.60862545  0.34923483    -0.26600
C705        C  0.12312687  0.63664725  0.32868689     0.36000
C706        C  0.12959163  0.63250341  0.28747762    -0.28200
F707        F  0.06215017  0.53872529  0.26726614    -0.20400
H708        H  0.05311231  0.55370648  0.34297857     0.15300
F709        F  0.14371072  0.66875101  0.34801308    -0.24100
H710        H  0.15049054  0.65511524  0.27227267     0.17100
C711        C  0.07430569  0.41519306  0.79712726    -0.28100
C712        C  0.10056203  0.38571871  0.77714211     0.05500
C713        C  0.13165945  0.36211460  0.79959662     0.25100
C714        C  0.13796950  0.36964859  0.84058034    -0.12600
C715        C  0.11314383  0.40044987  0.86010903    -0.26600
C716        C  0.07997649  0.42213633  0.83828095     0.35900
C717        C  0.09680094  0.38142832  0.73278826     0.05500
F718        F  0.15632085  0.33201847  0.78193996    -0.20400
H719        H  0.16326646  0.35207677  0.85676544     0.15300
F720        F  0.05415453  0.45123544  0.85614898    -0.24100
H721        H  0.05057819  0.43411223  0.78062445     0.17100
C722        C  0.05463493  0.38078930  0.71336470     0.25100
C723        C  0.05168558  0.37957193  0.67148550    -0.12600
C724        C  0.09052198  0.37744723  0.64827585    -0.26600
C725        C  0.13260223  0.37688246  0.66743977     0.36000
C726        C  0.13567292  0.37964264  0.70931029    -0.28200
F727        F  0.01625679  0.38008982  0.73482631    -0.20400
H728        H  0.01884662  0.37894026  0.65716303     0.15300
F729        F  0.17066725  0.37474282  0.64563798    -0.24100
H730        H  0.16861901  0.38095172  0.72336073     0.17100
C731        C  0.16576677  0.40270827  0.21354760    -0.28100
C732        C  0.12484326  0.41182855  0.23175966     0.05500
C733        C  0.08911650  0.42671630  0.20780410     0.25100
C734        C  0.09430461  0.43163359  0.16633362    -0.12600
C735        C  0.13485461  0.42119835  0.14809114    -0.26600
C736        C  0.17077358  0.40704245  0.17214920     0.35900
C737        C  0.11961662  0.40491385  0.27550657     0.05500
F738        F  0.04882479  0.43526093  0.22423617    -0.20400
H739        H  0.06636513  0.44289264  0.14837244     0.15300
F740        F  0.21120282  0.39845545  0.15594014    -0.24100
H741        H  0.19411644  0.39231219  0.23151346     0.17100
C742        C  0.13356015  0.36732738  0.29349022     0.25100
C743        C  0.12758829  0.36060548  0.33453791    -0.12600
C744        C  0.10703853  0.39085872  0.35831960    -0.26600
C745        C  0.09382652  0.42877608  0.34053623     0.36000
C746        C  0.10037170  0.43570788  0.29955177    -0.28200
F747        F  0.15120991  0.33632386  0.27110057    -0.20400
H748        H  0.13754852  0.33093257  0.34739645     0.15300
F749        F  0.07421986  0.45900122  0.36256950    -0.24100
H750        H  0.09022283  0.46518071  0.28651180     0.17100
loop_ 
_geom_bond_atom_site_label_1 
_geom_bond_atom_site_label_2 
_geom_bond_distance 
_geom_bond_site_symmetry_2 
_ccdc_geom_bond_type 
N1            N2   1.328       .  A
N1            N7   1.318       .  A
N1          Mn30   2.223   1_554  S
N2            C9   1.359       .  A
N3            N5   1.319       .  A
N3            N4   1.315       .  A
N3          Mn19   2.191       .  S
N4           C10   1.346       .  A
N5            N6   1.325       .  A
N5          Mn30   2.220       .  S
N6           C10   1.356       .  A
N7            N8   1.311       .  A
N7          Mn19   2.177   1_554  S
N8            C9   1.343       .  A
C9          C664   1.476       .  S
C10         C615   1.465       .  S
N11          N17   1.311       .  A
N11          N12   1.320       .  A
N11         Mn41   2.185       .  S
N12          C20   1.353       .  A
N13          N14   1.318       .  A
N13          N15   1.313       .  A
N13         Mn19   2.192   1_554  S
N14          C21   1.351       .  A
N15          N16   1.321       .  A
N15         Mn41   2.188   1_554  S
N16          C21   1.352       .  A
N17          N18   1.319       .  A
N17         Mn19   2.186       .  S
N18          C20   1.352       .  A
Mn19        Cl43   2.493       .  S
C20         C715   1.477       .  S
C21         C735   1.473       .  S
N22          N23   1.325       .  A
N22          N28   1.318       .  A
N22         Mn30   2.221       .  S
N23          C31   1.356       .  A
N24          N26   1.319       .  A
N24          N25   1.316       .  A
N24         Mn42   2.196   1_554  S
N25          C32   1.347       .  A
N26          N27   1.325       .  A
N26         Mn30   2.223   1_554  S
N27          C32   1.356       .  A
N28          N29   1.315       .  A
N28         Mn42   2.191       .  S
N29          C31   1.347       .  A
Mn30        Cl43   2.582       .  S
C31         C595   1.470       .  S
C32         C644   1.469       .  S
N33          N34   1.318       .  A
N33          N39   1.313       .  A
N33         Mn41   2.180   1_554  S
N34          C44   1.349       .  A
N35          N36   1.321       .  A
N35          N37   1.314       .  A
N35         Mn42   2.207       .  S
N36          C45   1.353       .  A
N37          N38   1.318       .  A
N37         Mn41   2.176       .  S
N38          C45   1.348       .  A
N39          N40   1.322       .  A
N39         Mn42   2.198   1_554  S
N40          C44   1.353       .  A
Mn41        Cl43   2.583       .  S
Mn42        Cl43   2.499       .  S
C44         C695   1.471       .  S
C45         C684   1.468       .  S
N46          N47   1.318       .  A
N46          N52   1.312       .  A
N46         Mn75   2.181   1_554  S
N47          C54   1.352       .  A
N48          N50   1.313       .  A
N48          N49   1.320       .  A
N48         Mn64   2.200       .  S
N49          C55   1.353       .  A
N50          N51   1.319       .  A
N50         Mn75   2.184       .  S
N51          C55   1.351       .  A
N52          N53   1.319       .  A
N52         Mn64   2.190   1_554  S
N53          C54   1.352       .  A
C54         C584   1.474       .  S
C55         C555   1.477       .  S
N56          N62   1.318       .  A
N56          N57   1.326       .  A
N56         Mn86   2.227       .  S
N57          C65   1.358       .  A
N58          N59   1.318       .  A
N58          N60   1.320       .  A
N58         Mn64   2.201   1_554  S
N59          C66   1.347       .  A
N60          N61   1.327       .  A
N60         Mn86   2.232   1_554  S
N61          C66   1.357       .  A
N62          N63   1.313       .  A
N62         Mn64   2.177       .  S
N63          C65   1.345       .  A
Mn64        Cl88   2.506       .  S
C65         C495   1.469       .  S
C66         C455   1.477       .  S
N67          N68   1.317       .  A
N67          N73   1.312       .  A
N67         Mn75   2.180       .  S
N68          C76   1.350       .  A
N69          N71   1.313       .  A
N69          N70   1.319       .  A
N69         Mn87   2.188   1_554  S
N70          C77   1.350       .  A
N71          N72   1.318       .  A
N71         Mn75   2.185   1_554  S
N72          C77   1.351       .  A
N73          N74   1.320       .  A
N73         Mn87   2.192       .  S
N74          C76   1.354       .  A
Mn75        Cl88   2.577       .  S
C76         C515   1.474       .  S
C77         C535   1.465       .  S
N78          N79   1.330       .  A
N78          N84   1.320       .  A
N78         Mn86   2.238   1_554  S
N79          C89   1.361       .  A
N80          N81   1.315       .  A
N80          N82   1.319       .  A
N80         Mn87   2.187       .  S
N81          C90   1.346       .  A
N82          N83   1.323       .  A
N82         Mn86   2.216       .  S
N83          C90   1.354       .  A
N84          N85   1.313       .  A
N84         Mn87   2.187   1_554  S
N85          C89   1.345       .  A
Mn86        Cl88   2.579       .  S
Mn87        Cl88   2.506       .  S
C89         C435   1.482       .  S
C90         C484   1.463       .  S
N91          N92   1.328       .  A
N91          N97   1.320       .  A
N91        Mn120   2.246   1_545  S
N92          C99   1.361       .  A
N93          N95   1.321       .  A
N93          N94   1.313       .  A
N93        Mn109   2.188       .  S
N94         C100   1.345       .  A
N95          N96   1.332       .  A
N95        Mn120   2.260       .  S
N96         C100   1.364       .  A
N97          N98   1.313       .  A
N97        Mn109   2.178   1_545  S
N98          C99   1.344       .  A
C99         C415   1.477       .  S
C100        C375   1.491       .  S
N101        N107   1.313       .  A
N101        N102   1.320       .  A
N101       Mn131   2.188       .  S
N102        C110   1.352       .  A
N103        N104   1.318       .  A
N103        N105   1.313       .  A
N103       Mn109   2.193   1_545  S
N104        C111   1.351       .  A
N105        N106   1.322       .  A
N105       Mn131   2.190   1_545  S
N106        C111   1.351       .  A
N107        N108   1.320       .  A
N107       Mn109   2.195       .  S
N108        C110   1.351       .  A
Mn109      Cl133   2.491       .  S
C110        C635   1.472       .  S
C111        C655   1.474       .  S
N112        N113   1.331       .  A
N112        N118   1.320       .  A
N112       Mn120   2.256       .  S
N113        C121   1.365       .  A
N114        N116   1.319       .  A
N114        N115   1.310       .  A
N114       Mn132   2.173   1_545  S
N115        C122   1.342       .  A
N116        N117   1.333       .  A
N116       Mn120   2.253   1_545  S
N117        C122   1.365       .  A
N118        N119   1.312       .  A
N118       Mn132   2.176       .  S
N119        C121   1.342       .  A
Mn120      Cl133   2.600       .  S
C121        C355   1.484       .  S
C122        C395   1.483       .  S
N123        N124   1.324       .  A
N123        N129   1.312       .  A
N123       Mn131   2.201   1_545  S
N124        C134   1.353       .  A
N125        N126   1.319       .  A
N125        N127   1.312       .  A
N125       Mn132   2.187       .  S
N126        C135   1.350       .  A
N127        N128   1.326       .  A
N127       Mn131   2.208       .  S
N128        C135   1.356       .  A
N129        N130   1.322       .  A
N129       Mn132   2.197   1_545  S
N130        C134   1.352       .  A
Mn131      Cl133   2.593       .  S
Mn132      Cl133   2.490       .  S
C134        C464   1.482       .  S
C135        C444   1.486       .  S
N136        N137   1.321       .  A
N136        N142   1.312       .  A
N136       Mn165   2.194   1_545  S
N137        C144   1.354       .  A
N138        N140   1.314       .  A
N138        N139   1.319       .  A
N138       Mn154   2.187       .  S
N139        C145   1.348       .  A
N140        N141   1.324       .  A
N140       Mn165   2.207       .  S
N141        C145   1.354       .  A
N142        N143   1.319       .  A
N142       Mn154   2.189   1_545  S
N143        C144   1.352       .  A
C144        C624   1.481       .  S
C145        C604   1.472       .  S
N146        N152   1.319       .  A
N146        N147   1.332       .  A
N146       Mn176   2.253       .  S
N147        C155   1.364       .  A
N148        N149   1.313       .  A
N148        N150   1.320       .  A
N148       Mn154   2.174   1_545  S
N149        C156   1.343       .  A
N150        N151   1.329       .  A
N150       Mn176   2.255   1_545  S
N151        C156   1.363       .  A
N152        N153   1.313       .  A
N152       Mn154   2.189       .  S
N153        C155   1.346       .  A
Mn154      Cl178   2.504       .  S
C155        C295   1.490       .  S
C156        C335   1.480       .  S
N157        N158   1.321       .  A
N157        N163   1.311       .  A
N157       Mn165   2.191       .  S
N158        C166   1.353       .  A
N159        N161   1.313       .  A
N159        N160   1.320       .  A
N159       Mn177   2.186   1_545  S
N160        C167   1.349       .  A
N161        N162   1.323       .  A
N161       Mn165   2.210   1_545  S
N162        C167   1.355       .  A
N163        N164   1.318       .  A
N163       Mn177   2.185       .  S
N164        C166   1.352       .  A
Mn165      Cl178   2.577       .  S
C166        C475   1.478       .  S
C167        C504   1.472       .  S
N168        N169   1.331       .  A
N168        N174   1.320       .  A
N168       Mn176   2.259   1_545  S
N169        C179   1.364       .  A
N170        N171   1.313       .  A
N170        N172   1.319       .  A
N170       Mn177   2.176       .  S
N171        C180   1.343       .  A
N172        N173   1.330       .  A
N172       Mn176   2.250       .  S
N173        C180   1.363       .  A
N174        N175   1.314       .  A
N174       Mn177   2.181   1_545  S
N175        C179   1.343       .  A
Mn176      Cl178   2.592       .  S
Mn177      Cl178   2.506       .  S
C179        C315   1.483       .  S
C180        C275   1.480       .  S
N181        N182   1.331       .  A
N181        N187   1.320       .  A
N181       Mn210   2.257   1_455  S
N182        C189   1.364       .  A
N183        N185   1.321       .  A
N183        N184   1.314       .  A
N183       Mn199   2.190       .  S
N184        C190   1.345       .  A
N185        N186   1.330       .  A
N185       Mn210   2.243   1_455  S
N186        C190   1.359       .  A
N187        N188   1.311       .  A
N187       Mn199   2.173       .  S
N188        C189   1.342       .  A
C189        C424   1.481       .  S
C190        C344   1.478       .  S
N191        N197   1.314       .  A
N191        N192   1.319       .  A
N191       Mn221   2.193       .  S
N192        C200   1.351       .  A
N193        N194   1.320       .  A
N193        N195   1.311       .  A
N193       Mn199   2.199       .  S
N194        C201   1.354       .  A
N195        N196   1.319       .  A
N195       Mn221   2.178       .  S
N196        C201   1.351       .  A
N197        N198   1.321       .  A
N197       Mn199   2.196       .  S
N198        C200   1.352       .  A
Mn199      Cl223   2.500       .  S
C200        C724   1.470       .  S
C201        C744   1.475       .  S
N202        N203   1.331       .  A
N202        N208   1.320       .  A
N202       Mn210   2.250       .  S
N203        C211   1.363       .  A
N204        N206   1.321       .  A
N204        N205   1.314       .  A
N204       Mn222   2.191       .  S
N205        C212   1.345       .  A
N206        N207   1.331       .  A
N206       Mn210   2.247       .  S
N207        C212   1.361       .  A
N208        N209   1.312       .  A
N208       Mn222   2.182       .  S
N209        C211   1.344       .  A
Mn210      Cl223   2.598   1_655  S
C211        C324   1.485       .  S
C212        C404   1.488       .  S
N213        N214   1.319       .  A
N213        N219   1.313       .  A
N213       Mn221   2.192   1_655  S
N214        C224   1.353       .  A
N215        N216   1.317       .  A
N215        N217   1.311       .  A
N215       Mn222   2.192       .  S
N216        C225   1.352       .  A
N217        N218   1.319       .  A
N217       Mn221   2.171   1_655  S
N218        C225   1.350       .  A
N219        N220   1.319       .  A
N219       Mn222   2.188       .  S
N220        C224   1.350       .  A
Mn221      Cl223   2.591       .  S
Mn222      Cl223   2.498   1_655  S
C224        C575   1.465       .  S
C225        C564   1.467       .  S
N226        N227   1.321       .  A
N226        N232   1.311       .  A
N226       Mn255   2.191   1_455  S
N227        C234   1.354       .  A
N228        N230   1.311       .  A
N228        N229   1.318       .  A
N228       Mn244   2.184       .  S
N229        C235   1.351       .  A
N230        N231   1.319       .  A
N230       Mn255   2.185   1_455  S
N231        C235   1.353       .  A
N232        N233   1.317       .  A
N232       Mn244   2.178       .  S
N233        C234   1.350       .  A
C234        C704   1.477       .  S
C235        C675   1.474       .  S
N236        N242   1.319       .  A
N236        N237   1.333       .  A
N236       Mn266   2.267   1_455  S
N237        C245   1.366       .  A
N238        N239   1.312       .  A
N238        N240   1.319       .  A
N238       Mn244   2.176       .  S
N239        C246   1.343       .  A
N240        N241   1.331       .  A
N240       Mn266   2.254   1_455  S
N241        C246   1.364       .  A
N242        N243   1.312       .  A
N242       Mn244   2.169       .  S
N243        C245   1.340       .  A
Mn244      Cl268   2.495   1_455  S
C245        C304   1.482       .  S
C246        C384   1.482       .  S
N247        N248   1.318       .  A
N247        N253   1.312       .  A
N247       Mn255   2.185       .  S
N248        C256   1.351       .  A
N249        N251   1.312       .  A
N249        N250   1.320       .  A
N249       Mn267   2.193       .  S
N250        C257   1.353       .  A
N251        N252   1.317       .  A
N251       Mn255   2.176       .  S
N252        C257   1.350       .  A
N253        N254   1.319       .  A
N253       Mn267   2.186       .  S
N254        C256   1.350       .  A
Mn255      Cl268   2.589       .  S
C256        C524   1.463       .  S
C257        C544   1.472       .  S
N258        N259   1.330       .  A
N258        N264   1.320       .  A
N258       Mn266   2.252       .  S
N259        C269   1.362       .  A
N260        N261   1.313       .  A
N260        N262   1.322       .  A
N260       Mn267   2.189       .  S
N261        C270   1.344       .  A
N262        N263   1.332       .  A
N262       Mn266   2.260       .  S
N263        C270   1.364       .  A
N264        N265   1.312       .  A
N264       Mn267   2.171       .  S
N265        C269   1.341       .  A
Mn266      Cl268   2.599       .  S
Mn267      Cl268   2.496       .  S
C269        C364   1.477       .  S
C270        C284   1.487       .  S
C271        C272   1.406       .  A
C271        C276   1.396       .  A
C271        H281   1.082       .  S
C272        C277   1.496       .  S
C272        C273   1.412       .  A
C273        C274   1.406       .  A
C273        F278   1.356       .  S
C274        C275   1.403       .  A
C274        H279   1.084       .  S
C275        C276   1.408       .  A
C276        F280   1.359       .  S
C277        C282   1.413       .  A
C277        C286   1.403       .  A
C282        C283   1.410       .  A
C282        F287   1.357       .  S
C283        C284   1.406       .  A
C283        H288   1.084       .  S
C284        C285   1.409       .  A
C285        C286   1.395       .  A
C285        F289   1.358       .  S
C286        H290   1.082       .  S
C291        C292   1.412       .  A
C291        C296   1.412       .  A
C291        H301   1.082       .  S
C292        C297   1.498       .  S
C292        C293   1.406       .  A
C293        C294   1.395       .  A
C293        F298   1.357       .  S
C294        C295   1.407       .  A
C294        H299   1.082       .  S
C295        C296   1.408       .  A
C296        F300   1.357       .  S
C297        C302   1.412       .  A
C297        C306   1.405       .  A
C302        C303   1.409       .  A
C302        F307   1.357       .  S
C303        C304   1.404       .  A
C303        H308   1.083       .  S
C304        C305   1.409       .  A
C305        C306   1.399       .  A
C305        F309   1.358       .  S
C306        H310   1.082       .  S
C311        C312   1.411       .  A
C311        C316   1.408       .  A
C311        H321   1.081       .  S
C312        C317   1.502       .  S
C312        C313   1.412       .  A
C313        C314   1.399       .  A
C313        F318   1.358       .  S
C314        C315   1.405       .  A
C314        H319   1.083       .  S
C315        C316   1.405       .  A
C316        F320   1.357       .  S
C317        C322   1.416       .  A
C317        C326   1.405       .  A
C322        C323   1.410       .  A
C322        F327   1.357       .  S
C323        C324   1.405       .  A
C323        H328   1.082       .  S
C324        C325   1.407       .  A
C325        C326   1.396       .  A
C325        F329   1.358       .  S
C326        H330   1.080       .  S
C331        C332   1.404       .  A
C331        C336   1.399       .  A
C331        H341   1.083       .  S
C332        C337   1.492       .  S
C332        C333   1.412       .  A
C333        C334   1.404       .  A
C333        F338   1.357       .  S
C334        C335   1.403       .  A
C334        H339   1.081       .  S
C335        C336   1.409       .  A
C336        F340   1.358       .  S
C337        C342   1.415       .  A
C337        C346   1.401       .  A
C342        C343   1.409       .  A
C342        F347   1.357       .  S
C343        C344   1.403       .  A
C343        H348   1.081       .  S
C344        C345   1.407       .  A
C345        C346   1.394       .  A
C345        F349   1.358       .  S
C346        H350   1.082       .  S
C351        C352   1.400       .  A
C351        C356   1.395       .  A
C351        H361   1.083       .  S
C352        C357   1.490       .  S
C352        C353   1.412       .  A
C353        C354   1.406       .  A
C353        F358   1.357       .  S
C354        C355   1.404       .  A
C354        H359   1.084       .  S
C355        C356   1.411       .  A
C356        F360   1.356       .  S
C357        C362   1.404       .  A
C357        C366   1.413       .  A
C362        C363   1.395       .  A
C362        F367   1.358       .  S
C363        C364   1.407       .  A
C363        H368   1.082       .  S
C364        C365   1.401       .  A
C365        C366   1.406       .  A
C365        F369   1.357       .  S
C366        H370   1.082       .  S
C371        C372   1.411       .  A
C371        C376   1.411       .  A
C371        H381   1.081       .  S
C372        C377   1.494       .  S
C372        C373   1.404       .  A
C373        C374   1.396       .  A
C373        F378   1.358       .  S
C374        C375   1.408       .  A
C374        H379   1.082       .  S
C375        C376   1.408       .  A
C376        F380   1.357       .  S
C377        C382   1.407       .  A
C377        C386   1.410       .  A
C382        C383   1.397       .  A
C382        F387   1.358       .  S
C383        C384   1.406       .  A
C383        H388   1.081       .  S
C384        C385   1.406       .  A
C385        C386   1.409       .  A
C385        F389   1.357       .  S
C386        H390   1.081       .  S
C391        C392   1.412       .  A
C391        C396   1.413       .  A
C391        H401   1.083       .  S
C392        C397   1.496       .  S
C392        C393   1.406       .  A
C393        C394   1.391       .  A
C393        F398   1.358       .  S
C394        C395   1.404       .  A
C394        H399   1.085       .  S
C395        C396   1.408       .  A
C396        F400   1.357       .  S
C397        C402   1.407       .  A
C397        C406   1.411       .  A
C402        C403   1.394       .  A
C402        F407   1.358       .  S
C403        C404   1.404       .  A
C403        H408   1.083       .  S
C404        C405   1.410       .  A
C405        C406   1.412       .  A
C405        F409   1.357       .  S
C406        H410   1.084       .  S
C411        C412   1.405       .  A
C411        C416   1.395       .  A
C411        H421   1.082       .  S
C412        C417   1.492       .  S
C412        C413   1.411       .  A
C413        C414   1.405       .  A
C413        F418   1.357       .  S
C414        C415   1.403       .  A
C414        H419   1.084       .  S
C415        C416   1.406       .  A
C416        F420   1.358       .  S
C417        C422   1.406       .  A
C417        C426   1.411       .  A
C422        C423   1.392       .  A
C422        F427   1.358       .  S
C423        C424   1.405       .  A
C423        H428   1.083       .  S
C424        C425   1.406       .  A
C425        C426   1.408       .  A
C425        F429   1.357       .  S
C426        H430   1.084       .  S
C431        C432   1.410       .  A
C431        C436   1.409       .  A
C431        H441   1.085       .  S
C432        C437   1.492       .  S
C432        C433   1.407       .  A
C433        C434   1.392       .  A
C433        F438   1.358       .  S
C434        C435   1.403       .  A
C434        H439   1.085       .  S
C435        C436   1.408       .  A
C436        F440   1.357       .  S
C437        C442   1.410       .  A
C437        C446   1.404       .  A
C442        C443   1.406       .  A
C442        F447   1.357       .  S
C443        C444   1.406       .  A
C443        H448   1.083       .  S
C444        C445   1.408       .  A
C445        C446   1.396       .  A
C445        F449   1.355       .  S
C446        H450   1.084       .  S
C451        C452   1.408       .  A
C451        C456   1.404       .  A
C451        H461   1.084       .  S
C452        C457   1.496       .  S
C452        C453   1.411       .  A
C453        C454   1.400       .  A
C453        F458   1.357       .  S
C454        C455   1.401       .  A
C454        H459   1.084       .  S
C455        C456   1.406       .  A
C456        F460   1.358       .  S
C457        C462   1.411       .  A
C457        C466   1.408       .  A
C462        C463   1.405       .  A
C462        F467   1.358       .  S
C463        C464   1.407       .  A
C463        H468   1.087       .  S
C464        C465   1.403       .  A
C465        C466   1.398       .  A
C465        F469   1.357       .  S
C466        H470   1.086       .  S
C471        C472   1.408       .  A
C471        C476   1.400       .  A
C471        H481   1.083       .  S
C472        C477   1.492       .  S
C472        C473   1.412       .  A
C473        C474   1.394       .  A
C473        F478   1.357       .  S
C474        C475   1.401       .  A
C474        H479   1.084       .  S
C475        C476   1.407       .  A
C476        F480   1.357       .  S
C477        C482   1.412       .  A
C477        C486   1.410       .  A
C482        C483   1.398       .  A
C482        F487   1.357       .  S
C483        C484   1.402       .  A
C483        H488   1.084       .  S
C484        C485   1.398       .  A
C485        C486   1.397       .  A
C485        F489   1.357       .  S
C486        H490   1.084       .  S
C491        C492   1.407       .  A
C491        C496   1.402       .  A
C491        H501   1.081       .  S
C492        C497   1.486       .  S
C492        C493   1.407       .  A
C493        C494   1.395       .  A
C493        F498   1.357       .  S
C494        C495   1.402       .  A
C494        H499   1.084       .  S
C495        C496   1.405       .  A
C496        F500   1.358       .  S
C497        C502   1.411       .  A
C497        C506   1.404       .  A
C502        C503   1.399       .  A
C502        F507   1.358       .  S
C503        C504   1.400       .  A
C503        H508   1.083       .  S
C504        C505   1.404       .  A
C505        C506   1.399       .  A
C505        F509   1.355       .  S
C506        H510   1.084       .  S
C511        C512   1.403       .  A
C511        C516   1.393       .  A
C511        H521   1.083       .  S
C512        C517   1.476       .  S
C512        C513   1.405       .  A
C513        C514   1.395       .  A
C513        F518   1.357       .  S
C514        C515   1.404       .  A
C514        H519   1.083       .  S
C515        C516   1.408       .  A
C516        F520   1.357       .  S
C517        C522   1.404       .  A
C517        C526   1.406       .  A
C522        C523   1.389       .  A
C522        F527   1.357       .  S
C523        C524   1.399       .  A
C523        H528   1.096       .  S
C524        C525   1.403       .  A
C525        C526   1.398       .  A
C525        F529   1.358       .  S
C526        H530   1.084       .  S
C531        C532   1.405       .  A
C531        C536   1.399       .  A
C531        H541   1.075       .  S
C532        C537   1.473       .  S
C532        C533   1.403       .  A
C533        C534   1.391       .  A
C533        F538   1.357       .  S
C534        C535   1.401       .  A
C534        H539   1.087       .  S
C535        C536   1.404       .  A
C536        F540   1.358       .  S
C537        C542   1.405       .  A
C537        C546   1.403       .  A
C542        C543   1.392       .  A
C542        F547   1.358       .  S
C543        C544   1.404       .  A
C543        H548   1.082       .  S
C544        C545   1.407       .  A
C545        C546   1.397       .  A
C545        F549   1.357       .  S
C546        H550   1.081       .  S
C551        C552   1.405       .  A
C551        C556   1.394       .  A
C551        H561   1.084       .  S
C552        C557   1.482       .  S
C552        C553   1.407       .  A
C553        C554   1.397       .  A
C553        F558   1.357       .  S
C554        C555   1.405       .  A
C554        H559   1.084       .  S
C555        C556   1.407       .  A
C556        F560   1.357       .  S
C557        C562   1.407       .  A
C557        C566   1.408       .  A
C562        C563   1.389       .  A
C562        F567   1.357       .  S
C563        C564   1.400       .  A
C563        H568   1.085       .  S
C564        C565   1.405       .  A
C565        C566   1.400       .  A
C565        F569   1.358       .  S
C566        H570   1.083       .  S
C571        C572   1.404       .  A
C571        C576   1.391       .  A
C571        H581   1.083       .  S
C572        C577   1.481       .  S
C572        C573   1.411       .  A
C573        C574   1.398       .  A
C573        F578   1.358       .  S
C574        C575   1.401       .  A
C574        H579   1.085       .  S
C575        C576   1.402       .  A
C576        F580   1.357       .  S
C577        C582   1.408       .  A
C577        C586   1.404       .  A
C582        C583   1.393       .  A
C582        F587   1.357       .  S
C583        C584   1.403       .  A
C583        H588   1.082       .  S
C584        C585   1.407       .  A
C585        C586   1.395       .  A
C585        F589   1.357       .  S
C586        H590   1.089       .  S
C591        C592   1.404       .  A
C591        C596   1.396       .  A
C591        H601   1.085       .  S
C592        C597   1.483       .  S
C592        C593   1.408       .  A
C593        C594   1.401       .  A
C593        F598   1.358       .  S
C594        C595   1.404       .  A
C594        H599   1.086       .  S
C595        C596   1.403       .  A
C596        F600   1.358       .  S
C597        C602   1.406       .  A
C597        C606   1.406       .  A
C602        C603   1.402       .  A
C602        F607   1.357       .  S
C603        C604   1.404       .  A
C603        H608   1.079       .  S
C604        C605   1.401       .  A
C605        C606   1.396       .  A
C605        F609   1.357       .  S
C606        H610   1.082       .  S
C611        C612   1.410       .  A
C611        C616   1.401       .  A
C611        H621   1.084       .  S
C612        C617   1.488       .  S
C612        C613   1.408       .  A
C613        C614   1.394       .  A
C613        F618   1.357       .  S
C614        C615   1.401       .  A
C614        H619   1.084       .  S
C615        C616   1.400       .  A
C616        F620   1.357       .  S
C617        C622   1.409       .  A
C617        C626   1.406       .  A
C622        C623   1.398       .  A
C622        F627   1.358       .  S
C623        C624   1.405       .  A
C623        H628   1.083       .  S
C624        C625   1.407       .  A
C625        C626   1.398       .  A
C625        F629   1.357       .  S
C626        H630   1.083       .  S
C631        C632   1.410       .  A
C631        C636   1.396       .  A
C631        H641   1.081       .  S
C632        C637   1.490       .  S
C632        C633   1.409       .  A
C633        C634   1.398       .  A
C633        F638   1.357       .  S
C634        C635   1.404       .  A
C634        H639   1.082       .  S
C635        C636   1.402       .  A
C636        F640   1.358       .  S
C637        C642   1.410       .  A
C637        C646   1.408       .  A
C642        C643   1.397       .  A
C642        F647   1.358       .  S
C643        C644   1.401       .  A
C643        H648   1.083       .  S
C644        C645   1.404       .  A
C645        C646   1.399       .  A
C645        F649   1.357       .  S
C646        H650   1.083       .  S
C651        C652   1.403       .  A
C651        C656   1.394       .  A
C651        H661   1.084       .  S
C652        C657   1.482       .  S
C652        C653   1.409       .  A
C653        C654   1.402       .  A
C653        F658   1.357       .  S
C654        C655   1.403       .  A
C654        H659   1.082       .  S
C655        C656   1.405       .  A
C656        F660   1.357       .  S
C657        C662   1.405       .  A
C657        C666   1.407       .  A
C662        C663   1.390       .  A
C662        F667   1.358       .  S
C663        C664   1.403       .  A
C663        H668   1.086       .  S
C664        C665   1.408       .  A
C665        C666   1.405       .  A
C665        F669   1.357       .  S
C666        H670   1.084       .  S
C671        C672   1.404       .  A
C671        C676   1.393       .  A
C671        H681   1.089       .  S
C672        C677   1.482       .  S
C672        C673   1.408       .  A
C673        C674   1.395       .  A
C673        F678   1.357       .  S
C674        C675   1.404       .  A
C674        H679   1.085       .  S
C675        C676   1.407       .  A
C676        F680   1.357       .  S
C677        C682   1.407       .  A
C677        C686   1.407       .  A
C682        C683   1.396       .  A
C682        F687   1.357       .  S
C683        C684   1.404       .  A
C683        H688   1.082       .  S
C684        C685   1.400       .  A
C685        C686   1.395       .  A
C685        F689   1.357       .  S
C686        H690   1.085       .  S
C691        C692   1.407       .  A
C691        C696   1.397       .  A
C691        H701   1.085       .  S
C692        C697   1.484       .  S
C692        C693   1.408       .  A
C693        C694   1.396       .  A
C693        F698   1.357       .  S
C694        C695   1.402       .  A
C694        H699   1.083       .  S
C695        C696   1.405       .  A
C696        F700   1.358       .  S
C697        C702   1.409       .  A
C697        C706   1.403       .  A
C702        C703   1.398       .  A
C702        F707   1.357       .  S
C703        C704   1.404       .  A
C703        H708   1.081       .  S
C704        C705   1.408       .  A
C705        C706   1.394       .  A
C705        F709   1.357       .  S
C706        H710   1.082       .  S
C711        C712   1.406       .  A
C711        C716   1.396       .  A
C711        H721   1.079       .  S
C712        C717   1.486       .  S
C712        C713   1.408       .  A
C713        C714   1.396       .  A
C713        F718   1.357       .  S
C714        C715   1.405       .  A
C714        H719   1.082       .  S
C715        C716   1.407       .  A
C716        F720   1.358       .  S
C717        C722   1.408       .  A
C717        C726   1.408       .  A
C722        C723   1.396       .  A
C722        F727   1.357       .  S
C723        C724   1.403       .  A
C723        H728   1.085       .  S
C724        C725   1.402       .  A
C725        C726   1.398       .  A
C725        F729   1.357       .  S
C726        H730   1.085       .  S
C731        C732   1.403       .  A
C731        C736   1.394       .  A
C731        H741   1.084       .  S
C732        C737   1.482       .  S
C732        C733   1.409       .  A
C733        C734   1.399       .  A
C733        F738   1.357       .  S
C734        C735   1.403       .  A
C734        H739   1.083       .  S
C735        C736   1.407       .  A
C736        F740   1.358       .  S
C737        C742   1.408       .  A
C737        C746   1.404       .  A
C742        C743   1.395       .  A
C742        F747   1.358       .  S
C743        C744   1.403       .  A
C743        H748   1.084       .  S
C744        C745   1.408       .  A
C745        C746   1.397       .  A
C745        F749   1.358       .  S
C746        H750   1.083       .  S
