geometry optimzed in LAMMPS
_audit_creation_date              2020-11-30 
_audit_creation_method            'lammps2cif' 
_symmetry_space_group_name_H-M    'P1' 
_symmetry_Int_Tables_number       1 
_symmetry_cell_setting            triclinic 
loop_ 
_symmetry_equiv_pos_as_xyz 
  x,y,z 
_cell_length_a                    52.33179986715619 
_cell_length_b                    30.175430875736232 
_cell_length_c                    49.85153865217158 
_cell_angle_alpha                 78.9919158647822 
_cell_angle_beta                  91.90087289853629 
_cell_angle_gamma                 90.44058985795908 
loop_ 
_atom_site_label 
_atom_site_type_symbol 
_atom_site_fract_x 
_atom_site_fract_y 
_atom_site_fract_z 
_atom_site_charge 
O1          O  0.34150697  0.32201524  0.32516620    -0.75160
O2          O  0.32985038  0.39632479  0.31558166    -0.54070
C3          C  0.33074108  0.35744701  0.33111303     0.78570
O4          O  0.45804652  0.32157870  0.26263934    -0.59760
O5          O  0.44275902  0.29411445  0.22578695    -0.52790
C6          C  0.46073080  0.29839576  0.24375831     0.70580
O7          O  0.42104744  0.40457799  0.31562474    -0.74320
O8          O  0.38000706  0.39946630  0.32652283    -0.54880
C9          C  0.40397147  0.39154266  0.33278461     0.76590
O10         O  0.37202576  0.22973716  0.27141449    -0.59460
O11         O  0.39211624  0.24368732  0.23046956    -0.52580
C12         C  0.38292444  0.21735162  0.25135029     0.73180
Zr13       Zr  0.35696952  0.29939548  0.28265058     2.54710
O14         O  0.35105555  0.23338998  0.31887103    -0.80030
O15         O  0.31370647  0.27815720  0.27067795    -0.93450
Zr16       Zr  0.42518913  0.36831612  0.27759780     2.64680
O17         O  0.45521040  0.32744971  0.31194924    -0.98400
O18         O  0.45895837  0.42386003  0.26613394    -0.80460
O19         O  0.38249250  0.35738733  0.29402088    -0.83820
O20         O  0.40055564  0.30732191  0.26687604    -2.18530
O21         O  0.33289847  0.33050490  0.18359808    -0.67210
O22         O  0.37274165  0.30074981  0.18210442    -0.51770
C23         C  0.34922210  0.30630875  0.17396017     0.71560
O24         O  0.37065705  0.51502371  0.22455120    -0.60120
O25         O  0.36596176  0.50724664  0.27017597    -0.52090
C26         C  0.36831084  0.53167898  0.24602365     0.73360
O27         O  0.41055656  0.43949744  0.17608794    -0.71510
O28         O  0.41559062  0.36521562  0.17417001    -0.50190
C29         C  0.41655777  0.40807210  0.16391023     0.74750
O30         O  0.30294432  0.43425142  0.22872440    -0.66840
O31         O  0.31535693  0.46021602  0.26729123    -0.54040
C32         C  0.29969465  0.45885116  0.24667145     0.73130
Zr33       Zr  0.33205838  0.37970706  0.21734623     2.77540
O34         O  0.31736955  0.42762916  0.17470282    -0.97590
O35         O  0.29079410  0.34199524  0.22337418    -0.78410
Zr36       Zr  0.39565034  0.45203542  0.21750301     2.70070
O37         O  0.39588411  0.51664140  0.17982370    -0.79660
O38         O  0.43551114  0.48916370  0.22689051    -0.98740
Zr39       Zr  0.35807872  0.42514161  0.28042004     2.21500
Zr40       Zr  0.39824502  0.32466336  0.21786050     2.11130
O41         O  0.37377428  0.39188904  0.20147986    -2.47430
O42         O  0.35362931  0.44043127  0.23209567    -0.79450
O43         O  0.35543454  0.31312458  0.23429380    -0.71650
O44         O  0.40123279  0.43698914  0.26517343    -2.32600
O45         O  0.33385002  0.36596438  0.26559096    -2.28810
O46         O  0.42144866  0.38644985  0.22994784    -0.73410
H47         H  0.41022778  0.28002700  0.27334492     0.78590
H48         H  0.40941534  0.46189134  0.27171244     0.79680
H49         H  0.37141787  0.39753133  0.18185388     0.81900
H50         H  0.31678308  0.36424270  0.27253756     0.79510
H51         H  0.46780142  0.42508772  0.28384411     0.42550
H52         H  0.44638820  0.48641149  0.21141357     0.41520
H53         H  0.37796031  0.51976065  0.17273229     0.41190
H54         H  0.32885661  0.42080457  0.16064674     0.39130
H55         H  0.29457752  0.30995566  0.22340732     0.42260
H56         H  0.30360862  0.28005955  0.28687069     0.37040
H57         H  0.33252804  0.23236832  0.32235560     0.43160
H58         H  0.44780099  0.29714293  0.31818156     0.39580
H59         H  0.30066969  0.41458561  0.17034807     0.44490
H60         H  0.31471873  0.24545238  0.27053514     0.43220
H61         H  0.45529079  0.34249880  0.32790575     0.43350
H62         H  0.43125912  0.52165322  0.22399656     0.43710
O63         O  0.40293831  0.01980017  0.22915373    -0.75160
O64         O  0.39175905  0.00077074  0.27367419    -0.54070
C65         C  0.39597279  0.02955100  0.25189478     0.78570
O66         O  0.34640862  0.85084560  0.17192548    -0.59760
O67         O  0.38320277  0.81475805  0.16631739    -0.52790
C68         C  0.35975923  0.82455790  0.16017169     0.70580
O69         O  0.32736126  0.95770760  0.22055311    -0.74320
O70         O  0.33635344  0.95733992  0.26558078    -0.54880
C71         C  0.32161599  0.96647174  0.24363356     0.76590
O72         O  0.43924782  0.94510354  0.17265004    -0.59460
O73         O  0.43175623  0.87500970  0.16289294    -0.52580
C74         C  0.44049855  0.91651169  0.15698194     0.73180
Zr75       Zr  0.41754034  0.95380000  0.21203649     2.54710
O76         O  0.40963799  0.01744313  0.17468287    -0.80030
O77         O  0.45962923  0.98364508  0.22138075    -0.93450
Zr78       Zr  0.34974301  0.89707481  0.20759317     2.64680
O79         O  0.33588345  0.94899877  0.16609232    -0.98400
O80         O  0.30780528  0.86155677  0.21385847    -0.80460
O81         O  0.37575694  0.94817264  0.22725438    -0.83820
O82         O  0.39132708  0.90369716  0.19101213    -2.18530
O83         O  0.46225349  0.79930227  0.25314318    -0.67210
O84         O  0.44828707  0.78523332  0.21188853    -0.51770
C85         C  0.46384523  0.77996414  0.23279095     0.71560
O86         O  0.34259850  0.83268909  0.31019469    -0.60120
O87         O  0.35905059  0.90065989  0.31550807    -0.52090
C88         C  0.34363047  0.86807054  0.32201817     0.73360
O89         O  0.36824377  0.74013578  0.25049543    -0.71510
O90         O  0.39303533  0.75053239  0.21278151    -0.50190
C91         C  0.37853086  0.72618294  0.23059609     0.74750
O92         O  0.44356271  0.89443925  0.30514577    -0.66840
O93         O  0.40430894  0.89176531  0.32010757    -0.54040
C94         C  0.42849868  0.88247288  0.32436655     0.73130
Zr95       Zr  0.43810713  0.85340131  0.26939977     2.77540
O96         O  0.44607680  0.78851314  0.30618821    -0.97590
O97         O  0.48234779  0.87814206  0.26428043    -0.78410
Zr98       Zr  0.36665221  0.80510435  0.27196590     2.70070
O99         O  0.38055255  0.74674807  0.31029078    -0.79660
O100        O  0.32337594  0.77487405  0.27127389    -0.98740
Zr101      Zr  0.38015467  0.92386521  0.27548649     2.21500
Zr102      Zr  0.40895940  0.82960210  0.20401270     2.11130
O103        O  0.40858314  0.80531717  0.25275897    -2.47430
O104        O  0.39706101  0.85055760  0.28854459    -0.79450
O105        O  0.43637946  0.88060033  0.22201221    -0.71650
O106        O  0.35034978  0.87710837  0.25623891    -2.32600
O107        O  0.42238098  0.92876805  0.25921723    -2.28810
O108        O  0.36705198  0.82564946  0.22290856    -0.73410
H109        H  0.39020690  0.91346525  0.17139979     0.78590
H110        H  0.33332196  0.87806519  0.26295493     0.79680
H111        H  0.41504752  0.77483882  0.25737065     0.81900
H112        H  0.43271243  0.95026841  0.26684425     0.79510
H113        H  0.30067744  0.87192194  0.22973720     0.42550
H114        H  0.31957162  0.77336392  0.25187786     0.41520
H115        H  0.38536340  0.76339303  0.32501097     0.41190
H116        H  0.43528358  0.76377391  0.30159883     0.39130
H117        H  0.48467519  0.88578637  0.24429670     0.42260
H118        H  0.45630682  0.00749630  0.23197441     0.37040
H119        H  0.39122539  0.01517460  0.16988107     0.43160
H120        H  0.34530720  0.93962008  0.15121502     0.39580
H121        H  0.46384092  0.77876783  0.30428586     0.44490
H122        H  0.46511925  0.00034207  0.20342337     0.43220
H123        H  0.34364500  0.97834261  0.16793396     0.43350
H124        H  0.32495835  0.74296730  0.28069936     0.43710
O125        O  0.15516809  0.27337135  0.23730723    -0.75160
O126        O  0.13551286  0.25557535  0.27820405    -0.54070
C127        C  0.14544427  0.28366838  0.25863075     0.78570
O128        O  0.10067688  0.09976180  0.17629733    -0.59760
O129        O  0.13862482  0.06374503  0.17469793    -0.52790
C130        C  0.11556995  0.07355579  0.16602375     0.70580
O131        O  0.06649505  0.19293188  0.22775379    -0.74320
O132        O  0.08073869  0.21641245  0.26667331    -0.54880
C133        C  0.06355821  0.21477924  0.24731108     0.76590
O134        O  0.20206644  0.18316889  0.19833294    -0.59460
O135        O  0.18623804  0.13041977  0.17643689    -0.52580
C136        C  0.19945355  0.16739260  0.17669070     0.73180
Zr137      Zr  0.16626320  0.20647668  0.22020588     2.54710
O138        O  0.15977950  0.25842248  0.17677043    -0.80030
O139        O  0.20504873  0.24255418  0.23441928    -0.93450
Zr140      Zr  0.09924377  0.14666714  0.21201810     2.64680
O141        O  0.09151727  0.20635504  0.17227152    -0.98400
O142        O  0.05734252  0.11296166  0.20706861    -0.80460
O143        O  0.12283563  0.20074624  0.23177138    -0.83820
O144        O  0.14239809  0.15371217  0.19882163    -2.18530
O145        O  0.22110016  0.08561666  0.25721121    -0.67210
O146        O  0.20428505  0.04661421  0.22623018    -0.51770
C147        C  0.22281771  0.05611850  0.24210018     0.71560
O148        O  0.09948911  0.08257447  0.32141151    -0.60120
O149        O  0.08837669  0.15568342  0.30780878    -0.52090
C150        C  0.08983224  0.12038134  0.32600807     0.73360
O151        O  0.12602143  0.98583316  0.26380808    -0.71510
O152        O  0.15131943  0.99793467  0.22618155    -0.50190
C153        C  0.13855715  0.97198234  0.24516871     0.74750
O154        O  0.18446512  0.15455200  0.31540456    -0.66840
O155        O  0.14432861  0.14544782  0.32675964    -0.54040
C156        C  0.16847310  0.13907421  0.33308509     0.73130
Zr157      Zr  0.18609164  0.11086706  0.28034835     2.77540
O158        O  0.19567124  0.03589232  0.30771548    -0.97590
O159        O  0.22630283  0.14412529  0.29293930    -0.78410
Zr160      Zr  0.11625401  0.05596576  0.27887870     2.70070
O161        O  0.12330686  0.99434013  0.31768510    -0.79660
O162        O  0.07235180  0.03154232  0.27285851    -0.98740
Zr163      Zr  0.12299870  0.17810621  0.28015767     2.21500
Zr164      Zr  0.16165918  0.08071488  0.21440006     2.11130
O165        O  0.15951423  0.05885142  0.26302421    -2.47430
O166        O  0.14305368  0.10674051  0.29565866    -0.79450
O167        O  0.18589804  0.13487205  0.23305980    -0.71650
O168        O  0.09755637  0.12594630  0.26035549    -2.32600
O169        O  0.16641612  0.18323616  0.26743174    -2.28810
O170        O  0.11822252  0.07589830  0.22982377    -0.73410
H171        H  0.14275573  0.16254881  0.17916516     0.78590
H172        H  0.07998133  0.12529109  0.26572791     0.79680
H173        H  0.16704755  0.02931283  0.26804688     0.81900
H174        H  0.17510937  0.20571997  0.27571452     0.79510
H175        H  0.05145323  0.10368313  0.22599155     0.42550
H176        H  0.07146978  0.02488549  0.25415406     0.41520
H177        H  0.13425491  0.00753772  0.33073204     0.41190
H178        H  0.20310345  0.01764197  0.29540483     0.39130
H179        H  0.23310310  0.16062030  0.27555145     0.42260
H180        H  0.21779490  0.21806302  0.23929101     0.37040
H181        H  0.14300444  0.27254935  0.17827983     0.43160
H182        H  0.10112601  0.19704275  0.15749761     0.39580
H183        H  0.17908068  0.02153242  0.31314172     0.44490
H184        H  0.20192889  0.25215517  0.25189334     0.43220
H185        H  0.07332570  0.20262893  0.16702308     0.43350
H186        H  0.07134038  0.00158864  0.28503954     0.43710
O187        O  0.16986199  0.69790524  0.17338494    -0.75160
O188        O  0.16842441  0.62635576  0.16467695    -0.54070
C189        C  0.17457538  0.66923796  0.15842885     0.78570
O190        O  0.18297917  0.64172574  0.30812456    -0.59760
O191        O  0.14483013  0.63370905  0.32592548    -0.52790
C192        C  0.16931914  0.62647225  0.32830619     0.70580
O193        O  0.18967072  0.56669388  0.23463954    -0.74320
O194        O  0.18733157  0.54058098  0.19837842    -0.54880
C195        C  0.20082039  0.54513998  0.21928927     0.76590
O196        O  0.13953880  0.76552488  0.23333561    -0.59460
O197        O  0.12657163  0.74650497  0.27727249    -0.52580
C198        C  0.13253840  0.77590942  0.25574303     0.73180
Zr199      Zr  0.14923758  0.69908525  0.21514312     2.54710
O200        O  0.19044171  0.73622428  0.21768001    -0.80030
O201        O  0.12918348  0.75973760  0.18216809    -0.93450
Zr202      Zr  0.17969891  0.60191265  0.27127249     2.64680
O203        O  0.22486053  0.61945639  0.26588085    -0.98400
O204        O  0.19430843  0.53672771  0.30485045    -0.80460
O205        O  0.17244826  0.63045405  0.22380356    -0.83820
O206        O  0.15897893  0.67437117  0.26230852    -2.18530
O207        O  0.05617450  0.66953673  0.24139477    -0.67210
O208        O  0.07435061  0.69306318  0.27870055    -0.51770
C209        C  0.05553162  0.68919524  0.26185846     0.71560
O210        O  0.10739934  0.48990699  0.24574660    -0.60120
O211        O  0.14159789  0.49594791  0.21891501    -0.52090
C212        C  0.12594134  0.47244173  0.23532738     0.73360
O213        O  0.09477265  0.55855432  0.32220133    -0.71510
O214        O  0.09162307  0.63490101  0.31925613    -0.50190
C215        C  0.08850686  0.59436561  0.33184510     0.74750
O216        O  0.07679559  0.58029884  0.18477628    -0.66840
O217        O  0.11496831  0.55685489  0.17227346    -0.54040
C218        C  0.09035660  0.55822206  0.17063334     0.73130
Zr219      Zr  0.08445308  0.63124664  0.21721655     2.77540
O220        O  0.04206918  0.59663409  0.21848046    -0.97590
O221        O  0.07034222  0.69005010  0.17922975    -0.78410
Zr222      Zr  0.11168647  0.54102069  0.27764534     2.70070
O223        O  0.07013801  0.50518439  0.28632394    -0.79660
O224        O  0.13139800  0.47568071  0.30706372    -0.98740
Zr225      Zr  0.14666731  0.57675945  0.20498384     2.21500
Zr226      Zr  0.11820385  0.66388374  0.28275616     2.11130
O227        O  0.09091765  0.61022907  0.26552811    -2.47430
O228        O  0.10694130  0.56383424  0.22874434    -0.79450
O229        O  0.10912246  0.68654244  0.23491487    -0.71650
O230        O  0.15213074  0.54939434  0.25516594    -2.32600
O231        O  0.12390045  0.64645824  0.19514426    -2.28810
O232        O  0.13950169  0.59285170  0.29271141    -0.73410
H233        H  0.16893091  0.69731634  0.26900919     0.78590
H234        H  0.16003237  0.51990837  0.25987196     0.79680
H235        H  0.07475374  0.60646827  0.27448218     0.81900
H236        H  0.12109118  0.65665787  0.17569703     0.79510
H237        H  0.17843310  0.52179356  0.31222679     0.42550
H238        H  0.13185247  0.48331112  0.32552837     0.41520
H239        H  0.05973383  0.51639775  0.26947573     0.41190
H240        H  0.03811002  0.58856716  0.23810130     0.39130
H241        H  0.06472181  0.71504378  0.18793716     0.42260
H242        H  0.11684518  0.74440044  0.17153519     0.37040
H243        H  0.20248488  0.71140954  0.22509580     0.43160
H244        H  0.22727901  0.64853865  0.27202337     0.39580
H245        H  0.03013790  0.62149521  0.21080549     0.44490
H246        H  0.14265416  0.77167595  0.16924528     0.43220
H247        H  0.23393642  0.59659280  0.27971546     0.43350
H248        H  0.11834645  0.45155233  0.30797292     0.43710
O249        O  0.21956047  0.29362068  0.05958100    -0.75160
O250        O  0.26064324  0.29781009  0.07155297    -0.54070
C251        C  0.23740386  0.28377655  0.07704883     0.78570
O252        O  0.28322967  0.15173552  0.99900633    -0.59760
O253        O  0.25569598  0.16691466  0.96160085    -0.52790
C254        C  0.26888709  0.13994679  0.98019398     0.70580
O255        O  0.30823506  0.23089625  0.06252182    -0.74320
O256        O  0.30548010  0.30455483  0.06681774    -0.54880
C257        C  0.31234917  0.26377301  0.07529912     0.76590
O258        O  0.19342050  0.22475121  0.99857162    -0.59460
O259        O  0.20581582  0.21268292  0.95714509    -0.52580
C260        C  0.18989352  0.20905969  0.97677644     0.73180
Zr261      Zr  0.22385259  0.26821679  0.01851357     2.54710
O262        O  0.24522679  0.20931603  0.05194209    -0.80030
O263        O  0.18080967  0.28981405  0.02863948    -0.93450
Zr264      Zr  0.29215972  0.21921563  0.01696620     2.64680
O265        O  0.28768261  0.16103761  0.05802149    -0.98400
O266        O  0.33441229  0.19741435  0.00522928    -0.80460
O267        O  0.26591795  0.28418490  0.00584596    -0.83820
O268        O  0.24851517  0.21739493  0.00080547    -2.18530
O269        O  0.22188303  0.36599712  0.92224431    -0.67210
O270        O  0.22641624  0.29663780  0.91091509    -0.51770
C271        C  0.21936081  0.33892793  0.90573891     0.71560
O272        O  0.32718996  0.38276035  0.97592559    -0.60120
O273        O  0.32414983  0.37216973  0.02165309    -0.52090
C274        C  0.33672935  0.38377613  0.99966233     0.73360
O275        O  0.31319010  0.27517875  0.92366300    -0.71510
O276        O  0.27689092  0.23552251  0.91696760    -0.50190
C277        C  0.29998685  0.24833106  0.91115908     0.74750
O278        O  0.25276372  0.43565719  0.98119810    -0.66840
O279        O  0.27374103  0.42212367  0.02245505    -0.54040
C280        C  0.26362107  0.44890336  0.00147205     0.73130
Zr281      Zr  0.24010538  0.36955142  0.96547488     2.77540
O282        O  0.24276270  0.44238501  0.93439415    -0.97590
O283        O  0.19677130  0.38918383  0.97510826    -0.78410
Zr284      Zr  0.30895178  0.31805775  0.96080959     2.70070
O285        O  0.31593150  0.37264597  0.91906767    -0.79660
O286        O  0.35409047  0.29769017  0.96613512    -0.98740
Zr287      Zr  0.28147115  0.34018511  0.02800625     2.21500
Zr288      Zr  0.24828340  0.24890362  0.95233247     2.11130
O289        O  0.26631884  0.32317405  0.94392755    -2.47430
O290        O  0.28340786  0.36830901  0.98037365    -0.79450
O291        O  0.22083776  0.29733325  0.97167679    -0.71650
O292        O  0.31033898  0.29195124  0.00953622    -2.32600
O293        O  0.23779647  0.34415739  0.01329023    -2.28810
O294        O  0.29229612  0.24374571  0.96929375    -0.73410
H295        H  0.24055910  0.18805005  0.00452737     0.78590
H296        H  0.32753407  0.29103789  0.01730592     0.79680
H297        H  0.26716178  0.33496108  0.92457018     0.81900
H298        H  0.22751763  0.36330947  0.02210427     0.79510
H299        H  0.34558065  0.20124822  0.02105693     0.42550
H300        H  0.35485072  0.26873501  0.97930006     0.41520
H301        H  0.30674239  0.40004756  0.92158443     0.41190
H302        H  0.25449289  0.43753945  0.92006999     0.39130
H303        H  0.18564152  0.37301274  0.96369921     0.42260
H304        H  0.17574086  0.31386485  0.01298663     0.37040
H305        H  0.23769259  0.17999736  0.04973185     0.43160
H306        H  0.27647596  0.13770901  0.05229586     0.39580
H307        H  0.22578605  0.44797698  0.92502872     0.44490
H308        H  0.16898961  0.26451894  0.02744095     0.43220
H309        H  0.30465326  0.14626312  0.06106224     0.43350
H310        H  0.35855520  0.28983591  0.94847559     0.43710
O311        O  0.20920843  0.80198873  0.04811680    -0.75160
O312        O  0.24984234  0.79602570  0.06237025    -0.54070
C313        C  0.22553786  0.78746689  0.06691544     0.78570
O314        O  0.27985472  0.65663594  0.99245943    -0.59760
O315        O  0.25279514  0.66808140  0.95478883    -0.52790
C316        C  0.26697066  0.64276777  0.97346063     0.70580
O317        O  0.30279149  0.73981684  0.05758442    -0.74320
O318        O  0.29873056  0.81453728  0.05972538    -0.54880
C319        C  0.30602296  0.77445601  0.06960665     0.76590
O320        O  0.18167903  0.74258734  0.97925480    -0.59460
O321        O  0.20047683  0.71762994  0.94429326    -0.52580
C322        C  0.18119939  0.72229936  0.95891906     0.73180
Zr323      Zr  0.21282634  0.77320166  0.00746516     2.54710
O324        O  0.20206572  0.70238585  0.03746116    -0.80030
O325        O  0.17087779  0.80373198  0.01349000    -0.93450
Zr326      Zr  0.28330991  0.72036201  0.01388706     2.64680
O327        O  0.27002784  0.65762800  0.04901641    -0.98400
O328        O  0.32650789  0.69018420  0.01556400    -0.80460
O329        O  0.25440905  0.76742503  0.02872786    -0.83820
O330        O  0.24104723  0.72336700  0.99223882    -2.18530
O331        O  0.21849778  0.86745197  0.91188126    -0.67210
O332        O  0.22154484  0.79696138  0.90189180    -0.51770
C333        C  0.21515213  0.83947124  0.89607386     0.71560
O334        O  0.32195775  0.87910002  0.96521196    -0.60120
O335        O  0.31870492  0.87127155  0.01106911    -0.52090
C336        C  0.33115860  0.88341876  0.98853532     0.73360
O337        O  0.30768247  0.77165842  0.91465042    -0.71510
O338        O  0.26983069  0.73810323  0.90629233    -0.50190
C339        C  0.29335693  0.74804004  0.90099212     0.74750
O340        O  0.25468068  0.93726133  0.97090358    -0.66840
O341        O  0.26486401  0.91887394  0.01643020    -0.54040
C342        C  0.26148535  0.94755621  0.99387042     0.73130
Zr343      Zr  0.23678994  0.87288302  0.95463530     2.77540
O344        O  0.23873984  0.94599431  0.92381584    -0.97590
O345        O  0.19409195  0.89552196  0.96467696    -0.78410
Zr346      Zr  0.30399856  0.81272297  0.95302822     2.70070
O347        O  0.32174106  0.86167002  0.91344252    -0.79660
O348        O  0.34625082  0.78065335  0.96559729    -0.98740
Zr349      Zr  0.27422248  0.83894878  0.02017841     2.21500
Zr350      Zr  0.24322889  0.75020094  0.94357016     2.11130
O351        O  0.26237060  0.82348041  0.93386360    -2.47430
O352        O  0.27858553  0.86316805  0.97225120    -0.79450
O353        O  0.21638543  0.80172696  0.96058967    -0.71650
O354        O  0.30256515  0.79087349  0.00164631    -2.32600
O355        O  0.23148437  0.84691287  0.00144824    -2.28810
O356        O  0.28507094  0.74181761  0.96511530    -0.73410
H357        H  0.23331462  0.69375389  0.99590154     0.78590
H358        H  0.31952760  0.78985533  0.00998453     0.79680
H359        H  0.26387171  0.83444404  0.91447505     0.81900
H360        H  0.22165838  0.86770361  0.00949277     0.79510
H361        H  0.33723698  0.71081376  0.02440580     0.42550
H362        H  0.34359602  0.74764117  0.96793235     0.41520
H363        H  0.30882353  0.88578069  0.90793953     0.41190
H364        H  0.25133583  0.94209520  0.91009019     0.39130
H365        H  0.18246169  0.88102251  0.95284268     0.42260
H366        H  0.16490838  0.81849718  0.99490767     0.37040
H367        H  0.21761595  0.69427509  0.04916513     0.43160
H368        H  0.25528858  0.64387895  0.04066280     0.39580
H369        H  0.22208096  0.95014926  0.91365644     0.44490
H370        H  0.15963809  0.77704152  0.01833053     0.43220
H371        H  0.28390887  0.63512713  0.05031831     0.43350
H372        H  0.35598273  0.78858118  0.94864501     0.43710
O373        O  0.47247352  0.06494482  0.05269333    -0.75160
O374        O  0.01243985  0.04708874  0.06612326    -0.54070
C375        C  0.48784882  0.04497241  0.07088221     0.78570
O376        O  0.02586908  0.89832503  0.99666060    -0.59760
O377        O  0.00054284  0.91683481  0.95785266    -0.52790
C378        C  0.01305494  0.88808721  0.97606863     0.70580
O379        O  0.05873002  0.98163217  0.06279511    -0.74320
O380        O  0.06220458  0.05764329  0.06184649    -0.54880
C381        C  0.06605524  0.01683190  0.07335245     0.76590
O382        O  0.43799583  0.98790686  0.99671275    -0.59460
O383        O  0.44919462  0.96668203  0.95752868    -0.52580
C384        C  0.43317759  0.96773679  0.97693098     0.73180
Zr385      Zr  0.47069984  0.03016517  0.01406192     2.54710
O386        O  0.45366085  0.96998867  0.04847577    -0.80030
O387        O  0.43148351  0.07427866  0.00940307    -0.93450
Zr388      Zr  0.03705178  0.96184738  0.01877101     2.64680
O389        O  0.02565381  0.90078732  0.05582687    -0.98400
O390        O  0.07920749  0.93002392  0.01535827    -0.80460
O391        O  0.01264920  0.01536731  0.03370390    -0.83820
O392        O  0.99415344  0.97397093  0.99860206    -2.18530
O393        O  0.47826819  0.12242808  0.91692407    -0.67210
O394        O  0.47220572  0.05062226  0.90935643    -0.51770
C395        C  0.47013682  0.09459557  0.90247377     0.71560
O396        O  0.09392905  0.08792022  0.97611594    -0.60120
O397        O  0.08052670  0.11266909  0.01394502    -0.52090
C398        C  0.09739664  0.10885133  0.99592338     0.73360
O399        O  0.05804464  0.01155630  0.91762009    -0.71510
O400        O  0.01887778  0.98000864  0.91212170    -0.50190
C401        C  0.04224385  0.98887129  0.90508895     0.74750
O402        O  0.00710722  0.18617917  0.98270524    -0.66840
O403        O  0.02770134  0.16093727  0.02387967    -0.54040
C404        C  0.01726758  0.19183435  0.00563980     0.73130
Zr405      Zr  0.99886056  0.12385334  0.95902197     2.77540
O406        O  0.01984738  0.18605803  0.92953486    -0.97590
O407        O  0.45828146  0.16368586  0.95665791    -0.78410
Zr408      Zr  0.05992955  0.05027759  0.95649662     2.70070
O409        O  0.07142815  0.11082766  0.91905807    -0.79660
O410        O  0.09875947  0.00747279  0.95403147    -0.98740
Zr411      Zr  0.03637372  0.08295613  0.02345608     2.21500
Zr412      Zr  0.99376364  0.99867986  0.94965969     2.11130
O413        O  0.01823464  0.06711981  0.93869293    -2.47430
O414        O  0.04079495  0.10795563  0.97559304    -0.79450
O415        O  0.47308617  0.05719681  0.96695965    -0.71650
O416        O  0.05984354  0.02859830  0.00504396    -2.32600
O417        O  0.49378167  0.09903469  0.00592402    -2.28810
O418        O  0.03626426  0.98394905  0.96988668    -0.73410
H419        H  0.48468824  0.94597144  0.00308341     0.78590
H420        H  0.07698463  0.02471017  0.01290275     0.79680
H421        H  0.01935547  0.07686128  0.91915463     0.81900
H422        H  0.48525980  0.12151735  0.01380977     0.79510
H423        H  0.08997504  0.94087276  0.02949610     0.42550
H424        H  0.10430935  0.99659149  0.97332100     0.41520
H425        H  0.07535779  0.13700752  0.92782044     0.41190
H426        H  0.03047080  0.17138759  0.91771712     0.39130
H427        H  0.44509381  0.13971429  0.95811402     0.42260
H428        H  0.43684683  0.10453193  0.01240342     0.37040
H429        H  0.46626783  0.94522409  0.05022221     0.43160
H430        H  0.00863455  0.89047729  0.05022993     0.39580
H431        H  0.50600251  0.20151735  0.91739585     0.44490
H432        H  0.42179896  0.06129738  0.02580052     0.43220
H433        H  0.03739622  0.87587068  0.05430963     0.43350
H434        H  0.11169931  0.03027363  0.94662768     0.43710
O435        O  0.06152528  0.49848540  0.06282831    -0.75160
O436        O  0.02010708  0.48450320  0.07214974    -0.54070
C437        C  0.04351856  0.49136484  0.07976241     0.78570
O438        O  0.49859862  0.67364274  0.99693427    -0.59760
O439        O  0.01973561  0.67752742  0.95688359    -0.52790
C440        C  0.00970020  0.69542312  0.97570679     0.70580
O441        O  0.47076207  0.54740508  0.06210095    -0.74320
O442        O  0.46592732  0.47515802  0.05631605    -0.54880
C443        C  0.46403011  0.50512219  0.07040926     0.76590
O444        O  0.08723059  0.59806861  0.99099699    -0.59460
O445        O  0.06828571  0.63357247  0.95076622    -0.52580
C446        C  0.08716762  0.62620454  0.96806541     0.73180
Zr447      Zr  0.05872306  0.54397942  0.01774972     2.54710
O448        O  0.07300118  0.59437831  0.04802221    -0.80030
O449        O  0.10009829  0.50660135  0.02105579    -0.93450
Zr450      Zr  0.48826657  0.59637669  0.01844510     2.64680
O451        O  0.49406571  0.63758933  0.05574123    -0.98400
O452        O  0.44482685  0.62574953  0.01149219    -0.80460
O453        O  0.01766113  0.54025113  0.03730846    -0.83820
O454        O  0.03010524  0.60194069  0.99862486    -2.18530
O455        O  0.05403507  0.49649836  0.92371940    -0.67210
O456        O  0.04534773  0.57174470  0.90989701    -0.51770
C457        C  0.05388259  0.53279284  0.90592384     0.71560
O458        O  0.44008475  0.47317490  0.98231707    -0.60120
O459        O  0.45729180  0.43739788  0.02346474    -0.52090
C460        C  0.43953915  0.44406708  0.00461627     0.73360
O461        O  0.46075357  0.60106309  0.92426663    -0.71510
O462        O  0.99817674  0.63793868  0.91428961    -0.50190
C463        C  0.47401157  0.63324515  0.91044640     0.74750
O464        O  0.02192844  0.39662165  0.98957313    -0.66840
O465        O  0.50851295  0.39554769  0.03259536    -0.54040
C466        C  0.01503353  0.37616970  0.01324853     0.73130
Zr467      Zr  0.03357863  0.47102420  0.96533902     2.77540
O468        O  0.02107160  0.42285209  0.93306306    -0.97590
O469        O  0.07524811  0.43474216  0.97357628    -0.78410
Zr470      Zr  0.46630658  0.53293249  0.95960847     2.70070
O471        O  0.45559593  0.49753349  0.92071338    -0.79660
O472        O  0.42187091  0.55624695  0.96010235    -0.98740
Zr473      Zr  0.49862165  0.47370667  0.02774421     2.21500
Zr474      Zr  0.02662374  0.59957942  0.95041621     2.11130
O475        O  0.00719169  0.53179054  0.94189428    -2.47430
O476        O  0.49203857  0.47061304  0.98092819    -0.79450
O477        O  0.05408854  0.53919363  0.97113047    -0.71650
O478        O  0.46963875  0.53202793  0.00708485    -2.32600
O479        O  0.04067532  0.47370930  0.01178736    -2.28810
O480        O  0.48530218  0.59824341  0.97011608    -0.73410
H481        H  0.03857256  0.62925870  0.00148463     0.78590
H482        H  0.45272983  0.52863215  0.01439758     0.79680
H483        H  0.00514248  0.53121729  0.92264472     0.81900
H484        H  0.05060356  0.44841318  0.02143843     0.79510
H485        H  0.43461952  0.60460166  0.02464235     0.42550
H486        H  0.42276471  0.58779811  0.96298703     0.41520
H487        H  0.45899270  0.46502267  0.92750804     0.41190
H488        H  0.01407107  0.44365223  0.91671595     0.39130
H489        H  0.08736224  0.45974409  0.97468096     0.42260
H490        H  0.09651910  0.47436484  0.02833956     0.37040
H491        H  0.05814075  0.59674440  0.05945911     0.43160
H492        H  0.01281849  0.63993296  0.05833172     0.39580
H493        H  0.03733619  0.41176248  0.92718446     0.44490
H494        H  0.10945022  0.51733613  0.03619583     0.43220
H495        H  0.48830922  0.66879488  0.04822415     0.43350
H496        H  0.41536961  0.55865972  0.94099813     0.43710
O497        O  0.34667256  0.15309747  0.80988109    -0.75160
O498        O  0.33989939  0.22837153  0.79689898    -0.54070
C499        C  0.33933075  0.19208907  0.81471425     0.78570
O500        O  0.46310997  0.13780575  0.74700199    -0.59760
O501        O  0.44721753  0.10755599  0.71175206    -0.52790
C502        C  0.46515915  0.11330264  0.72880858     0.70580
O503        O  0.43126804  0.22964529  0.79759437    -0.74320
O504        O  0.39110576  0.21796255  0.80893000    -0.54880
C505        C  0.41529981  0.21484165  0.81552294     0.76590
O506        O  0.37990127  0.05030918  0.76313402    -0.59460
O507        O  0.40201134  0.06140277  0.72336416    -0.52580
C508        C  0.39259623  0.03689208  0.74458103     0.73180
Zr509      Zr  0.36247969  0.12185513  0.76886772     2.54710
O510        O  0.34856597  0.05649519  0.80227488    -0.80030
O511        O  0.31926719  0.10773300  0.75258707    -0.93450
Zr512      Zr  0.43277322  0.18621392  0.76281493     2.64680
O513        O  0.45845147  0.13635703  0.79736973    -0.98400
O514        O  0.46961240  0.23567441  0.75293653    -0.80460
O515        O  0.39052965  0.17649229  0.78061250    -0.83820
O516        O  0.40640631  0.12710912  0.75361126    -2.18530
O517        O  0.34290917  0.13638545  0.66834745    -0.67210
O518        O  0.38288141  0.10671001  0.66983541    -0.51770
C519        C  0.35945280  0.10921062  0.66115490     0.71560
O520        O  0.39820164  0.33949781  0.71439484    -0.60120
O521        O  0.37903763  0.32541982  0.75561179    -0.52090
C522        C  0.38926901  0.35213570  0.73545746     0.73360
O523        O  0.43634103  0.24821373  0.67000701    -0.71510
O524        O  0.43550485  0.17296358  0.66927236    -0.50190
C525        C  0.44431082  0.21351824  0.66188442     0.74750
O526        O  0.31276603  0.24778357  0.70986994    -0.66840
O527        O  0.32733716  0.27468238  0.74736361    -0.54040
C528        C  0.31040353  0.27119937  0.72847583     0.73130
Zr529      Zr  0.34234432  0.19531825  0.69801171     2.77540
O530        O  0.33054161  0.24085077  0.65360489    -0.97590
O531        O  0.29979532  0.16168352  0.70114379    -0.78410
Zr532      Zr  0.40546208  0.26919335  0.69838737     2.70070
O533        O  0.38799362  0.31423689  0.65611642    -0.79660
O534        O  0.44261772  0.31896938  0.69621382    -0.98740
Zr535      Zr  0.36932029  0.24487551  0.76212565     2.21500
Zr536      Zr  0.40534864  0.14000830  0.70457316     2.11130
O537        O  0.38428783  0.20755953  0.68237549    -2.47430
O538        O  0.36384989  0.25703709  0.71347452    -0.79450
O539        O  0.36268487  0.12911337  0.72021340    -0.71650
O540        O  0.41141270  0.25551180  0.74617857    -2.32600
O541        O  0.34313752  0.18836819  0.74684106    -2.28810
O542        O  0.42859584  0.20189853  0.71555482    -0.73410
H543        H  0.41611259  0.10060289  0.76173670     0.78590
H544        H  0.42038597  0.28001902  0.75231430     0.79680
H545        H  0.38470387  0.21105010  0.66272100     0.81900
H546        H  0.32604948  0.18899661  0.75349355     0.79510
H547        H  0.48093915  0.22812302  0.76946530     0.42550
H548        H  0.45740023  0.29883752  0.70228970     0.41520
H549        H  0.37389492  0.33153024  0.66197839     0.41190
H550        H  0.33851626  0.27063766  0.65381910     0.39130
H551        H  0.30211863  0.13032364  0.69844719     0.42260
H552        H  0.30876822  0.10348278  0.76905139     0.37040
H553        H  0.33776790  0.03804766  0.79194119     0.43160
H554        H  0.44623774  0.11937204  0.81015764     0.39580
H555        H  0.34040980  0.22800994  0.64030739     0.44490
H556        H  0.31999125  0.07750391  0.74766385     0.43220
H557        H  0.46798752  0.15634681  0.80771890     0.43350
H558        H  0.44509063  0.33062565  0.67651617     0.43710
O559        O  0.34876803  0.66097994  0.80080506    -0.75160
O560        O  0.35027001  0.73792358  0.79434459    -0.54070
C561        C  0.34273947  0.69960488  0.80727178     0.78570
O562        O  0.47682245  0.67145701  0.73913935    -0.59760
O563        O  0.46209630  0.62258274  0.71278190    -0.52790
C564        C  0.48009241  0.64083873  0.72502765     0.70580
O565        O  0.44183965  0.74207669  0.79622661    -0.74320
O566        O  0.40073318  0.74225977  0.80647128    -0.54880
C567        C  0.42467081  0.73790520  0.81384073     0.76590
O568        O  0.38314030  0.56009845  0.74993491    -0.59460
O569        O  0.41274978  0.56780414  0.71652853    -0.52580
C570        C  0.39779197  0.54412234  0.73372634     0.73180
Zr571      Zr  0.37333269  0.63111957  0.76439391     2.54710
O572        O  0.38044459  0.57028931  0.80361250    -0.80030
O573        O  0.33046896  0.60204479  0.75805644    -0.93450
Zr574      Zr  0.44231718  0.68942270  0.76588872     2.64680
O575        O  0.44997130  0.62280602  0.80132940    -0.98400
O576        O  0.48411538  0.70377367  0.78557216    -0.80460
O577        O  0.39931592  0.68518772  0.78033438    -0.83820
O578        O  0.41741813  0.63226772  0.75137482    -2.18530
O579        O  0.35688556  0.64840089  0.66735785    -0.67210
O580        O  0.39565111  0.61454291  0.66811241    -0.51770
C581        C  0.37193398  0.61836185  0.66041484     0.71560
O582        O  0.41594972  0.84500568  0.71523983    -0.60120
O583        O  0.39409621  0.83099993  0.75496381    -0.52090
C584        C  0.40573255  0.85673942  0.73588403     0.73360
O585        O  0.46008172  0.74120923  0.68284691    -0.71510
O586        O  0.44387211  0.68633183  0.66286153    -0.50190
C587        C  0.45832594  0.72134324  0.66255214     0.74750
O588        O  0.32709622  0.76811029  0.70464888    -0.66840
O589        O  0.34064684  0.79493279  0.74249614    -0.54040
C590        C  0.32446191  0.79361171  0.72241345     0.73130
Zr591      Zr  0.35693957  0.71243590  0.69352037     2.77540
O592        O  0.35149399  0.75978088  0.64830143    -0.97590
O593        O  0.31296677  0.68741668  0.68909993    -0.78410
Zr594      Zr  0.42342949  0.77582130  0.69839330     2.70070
O595        O  0.41164978  0.81548536  0.65248786    -0.79660
O596        O  0.45827398  0.83054386  0.69102782    -0.98740
Zr597      Zr  0.38054431  0.75504849  0.75940189     2.21500
Zr598      Zr  0.41887580  0.64847227  0.70219920     2.11130
O599        O  0.40001203  0.71889415  0.68013706    -2.47430
O600        O  0.38009748  0.77064886  0.71046395    -0.79450
O601        O  0.37537987  0.64407995  0.71575559    -0.71650
O602        O  0.42426649  0.76100665  0.74674368    -2.32600
O603        O  0.35502654  0.69990231  0.74229573    -2.28810
O604        O  0.44272332  0.70629167  0.71803519    -0.73410
H605        H  0.42545816  0.60359967  0.75862878     0.78590
H606        H  0.43377166  0.78478488  0.75303554     0.79680
H607        H  0.40090193  0.72343074  0.66048185     0.81900
H608        H  0.33750088  0.70135707  0.74755488     0.79510
H609        H  0.49036677  0.73145064  0.77355810     0.42550
H610        H  0.47249320  0.81644730  0.70323494     0.41520
H611        H  0.40488425  0.84483103  0.65516538     0.41190
H612        H  0.36241104  0.78650495  0.64895351     0.39130
H613        H  0.31013243  0.66581302  0.70636224     0.42260
H614        H  0.31880540  0.62484117  0.76280585     0.37040
H615        H  0.39912310  0.56492550  0.80430036     0.43160
H616        H  0.46508105  0.60830264  0.79524084     0.39580
H617        H  0.36012988  0.74331582  0.63579646     0.44490
H618        H  0.32894958  0.57568271  0.77315943     0.43220
H619        H  0.45634444  0.63481001  0.81745578     0.43350
H620        H  0.46398186  0.83038961  0.67230312     0.43710
O621        O  0.09508098  0.42145335  0.80915762    -0.75160
O622        O  0.09788034  0.49826202  0.79929760    -0.54070
C623        C  0.09085788  0.46199661  0.81445116     0.78570
O624        O  0.21425080  0.38476817  0.75346038    -0.59760
O625        O  0.19941161  0.36525599  0.71411777    -0.52790
C626        C  0.21640442  0.36504367  0.73330208     0.70580
O627        O  0.18764764  0.48339363  0.80150145    -0.74320
O628        O  0.14771242  0.47560018  0.81341488    -0.54880
C629        C  0.17181406  0.47028603  0.81987851     0.76590
O630        O  0.12348185  0.31082302  0.75823073    -0.59460
O631        O  0.15004222  0.31968986  0.72177245    -0.52580
C632        C  0.13685054  0.29583201  0.74048513     0.73180
Zr633      Zr  0.11505041  0.38329770  0.77201752     2.54710
O634        O  0.12272603  0.32728366  0.81351397    -0.80030
O635        O  0.07115253  0.35669200  0.76935592    -0.93450
Zr636      Zr  0.18687815  0.43703701  0.76786960     2.64680
O637        O  0.20146407  0.38144260  0.80740756    -0.98400
O638        O  0.22841548  0.47394111  0.76185393    -0.80460
O639        O  0.14499777  0.43305877  0.78538046    -0.83820
O640        O  0.15804032  0.38352519  0.75525723    -2.18530
O641        O  0.09344753  0.39702789  0.67339124    -0.67210
O642        O  0.13298344  0.36730748  0.67148324    -0.51770
C643        C  0.10899791  0.36922493  0.66472023     0.71560
O644        O  0.15891048  0.59332078  0.71950489    -0.60120
O645        O  0.14218743  0.57992482  0.76195864    -0.52090
C646        C  0.15105216  0.60591702  0.74101776     0.73360
O647        O  0.19986018  0.48909179  0.68400472    -0.71510
O648        O  0.18237671  0.43272131  0.66600484    -0.50190
C649        C  0.19730404  0.46729616  0.66464533     0.74750
O650        O  0.07453706  0.52369077  0.71334376    -0.66840
O651        O  0.09146354  0.54991683  0.75018726    -0.54040
C652        C  0.07488768  0.55049612  0.73062023     0.73130
Zr653      Zr  0.09722693  0.46100142  0.70100406     2.77540
O654        O  0.08749685  0.50698307  0.65617529    -0.97590
O655        O  0.05231920  0.43957273  0.70354489    -0.78410
Zr656      Zr  0.16513243  0.52410708  0.70204744     2.70070
O657        O  0.14938138  0.56529878  0.65791353    -0.79660
O658        O  0.19960985  0.57905517  0.69219384    -0.98740
Zr659      Zr  0.12798147  0.50391588  0.76595030     2.21500
Zr660      Zr  0.15751508  0.39817437  0.70610044     2.11130
O661        O  0.13927454  0.46865851  0.68476900    -2.47430
O662        O  0.12328318  0.51690988  0.71730001    -0.79450
O663        O  0.11505959  0.39275679  0.72301428    -0.71650
O664        O  0.17019446  0.50980406  0.75022292    -2.32600
O665        O  0.09826250  0.45263175  0.75004683    -2.28810
O666        O  0.18447771  0.45357487  0.72001429    -0.73410
H667        H  0.16568868  0.35446755  0.76235218     0.78590
H668        H  0.18056045  0.53264110  0.75650065     0.79680
H669        H  0.13922070  0.47294349  0.66506126     0.81900
H670        H  0.08129266  0.45630506  0.75635595     0.79510
H671        H  0.22660297  0.50270856  0.76837955     0.42550
H672        H  0.21444442  0.56510132  0.70345355     0.41520
H673        H  0.14150000  0.59282382  0.66209331     0.41190
H674        H  0.09871591  0.53376316  0.65523909     0.39130
H675        H  0.05208096  0.41128956  0.71738446     0.42260
H676        H  0.06066287  0.38034440  0.77494260     0.37040
H677        H  0.14158844  0.32586154  0.81582685     0.43160
H678        H  0.19635397  0.35172638  0.80331727     0.39580
H679        H  0.09462387  0.48997422  0.64302235     0.44490
H680        H  0.07010758  0.33060019  0.78470194     0.43220
H681        H  0.22034253  0.38175760  0.80699294     0.43350
H682        H  0.20415236  0.57890175  0.67309331     0.43710
O683        O  0.09454954  0.90960702  0.80118074    -0.75160
O684        O  0.08817345  0.98452022  0.78755341    -0.54070
C685        C  0.08588873  0.94855833  0.80505908     0.78570
O686        O  0.22199793  0.90679554  0.74325434    -0.59760
O687        O  0.20724962  0.87488407  0.70814290    -0.52790
C688        C  0.22539126  0.88338342  0.72471542     0.70580
O689        O  0.18034545  0.98821572  0.79530982    -0.74320
O690        O  0.14074968  0.97566768  0.80723659    -0.54880
C691        C  0.16491609  0.97163451  0.81348191     0.76590
O692        O  0.12787272  0.80969884  0.74868611    -0.59460
O693        O  0.15702183  0.82073761  0.71464925    -0.52580
C694        C  0.14276676  0.79589063  0.73199303     0.73180
Zr695      Zr  0.11723254  0.87909628  0.76329930     2.54710
O696        O  0.12554918  0.82249690  0.80435143    -0.80030
O697        O  0.07451883  0.84857989  0.75802042    -0.93450
Zr698      Zr  0.18685492  0.94114777  0.76260488     2.64680
O699        O  0.19980203  0.87958226  0.79959411    -0.98400
O700        O  0.22643119  0.98015732  0.77062031    -0.80460
O701        O  0.14363697  0.93305220  0.77718014    -0.83820
O702        O  0.16141596  0.88362493  0.74914124    -2.18530
O703        O  0.09891329  0.89636449  0.66509911    -0.67210
O704        O  0.13938728  0.86869208  0.66536027    -0.51770
C705        C  0.11566463  0.86975386  0.65757734     0.71560
O706        O  0.15319648  0.09788213  0.71447191    -0.60120
O707        O  0.13263587  0.08056367  0.75479252    -0.52090
C708        C  0.14294111  0.10849321  0.73545540     0.73360
O709        O  0.18600154  0.01218299  0.66259800    -0.71510
O710        O  0.18598870  0.93737609  0.66013604    -0.50190
C711        C  0.19187476  0.97923048  0.65158696     0.74750
O712        O  0.06797949  0.00998842  0.70670863    -0.66840
O713        O  0.08182668  0.03723841  0.74437377    -0.54040
C714        C  0.06515828  0.03387878  0.72528572     0.73130
Zr715      Zr  0.09829534  0.95807341  0.69306761     2.77540
O716        O  0.08922508  0.00591736  0.64852445    -0.97590
O717        O  0.05519826  0.92738630  0.69219249    -0.78410
Zr718      Zr  0.16245950  0.02852609  0.69842655     2.70070
O719        O  0.14950895  0.08681968  0.65971216    -0.79660
O720        O  0.20398699  0.06454383  0.70179549    -0.98740
Zr721      Zr  0.12259634  0.00171618  0.75899976     2.21500
Zr722      Zr  0.16254450  0.90083625  0.70024913     2.11130
O723        O  0.14111382  0.96949213  0.68008244    -2.47430
O724        O  0.11970638  0.01788514  0.71031400    -0.79450
O725        O  0.11915970  0.89164815  0.71454242    -0.71650
O726        O  0.16596248  0.01162370  0.74605709    -2.32600
O727        O  0.09754515  0.94599863  0.74171596    -2.28810
O728        O  0.18553143  0.96063586  0.71477965    -0.73410
H729        H  0.16987804  0.85524614  0.75599635     0.78590
H730        H  0.17454261  0.03627882  0.75245948     0.79680
H731        H  0.14154898  0.97473379  0.66039301     0.81900
H732        H  0.08004423  0.94557778  0.74730263     0.79510
H733        H  0.22536854  0.00914749  0.75740994     0.42550
H734        H  0.21664956  0.04019217  0.70219034     0.41520
H735        H  0.13060532  0.08505053  0.65899080     0.41190
H736        H  0.10447235  0.00409102  0.63757706     0.39130
H737        H  0.05639732  0.89735576  0.70432999     0.42260
H738        H  0.06294366  0.86901861  0.76520623     0.37040
H739        H  0.14437909  0.82269723  0.80705522     0.43160
H740        H  0.19845407  0.85167859  0.79197119     0.39580
H741        H  0.07579302  0.98939362  0.63997128     0.44490
H742        H  0.07424689  0.82014641  0.77173292     0.43220
H743        H  0.21843159  0.88394061  0.80202622     0.43350
H744        H  0.20596770  0.08460382  0.68379086     0.43710
O745        O  0.22347327  0.05092545  0.42437252    -0.75160
O746        O  0.22900109  0.97648317  0.42296112    -0.54070
C747        C  0.21792365  0.01537685  0.41522935     0.78570
O748        O  0.35001600  0.06886532  0.46934773    -0.59760
O749        O  0.33826818  0.08873711  0.50905215    -0.52790
C750        C  0.35415166  0.08788336  0.48997398     0.70580
O751        O  0.31873880  0.96760371  0.41981667    -0.74320
O752        O  0.28273021  0.92443126  0.42368864    -0.54880
C753        C  0.30397573  0.93692887  0.41255551     0.76590
O754        O  0.25608444  0.14608058  0.47390248    -0.59460
O755        O  0.28279183  0.13417993  0.51141707    -0.52580
C756        C  0.26796160  0.15877244  0.49425421     0.73180
Zr757      Zr  0.25216268  0.07580217  0.45582975     2.54710
O758        O  0.26454416  0.12638980  0.41417393    -0.80030
O759        O  0.21144009  0.11537819  0.45360430    -0.93450
Zr760      Zr  0.32021704  0.01715824  0.45452605     2.64680
O761        O  0.33139483  0.06729603  0.41223726    -0.98400
O762        O  0.36229002  0.98239866  0.45677241    -0.80460
O763        O  0.27694020  0.02072430  0.43908245    -0.83820
O764        O  0.29583862  0.07571209  0.46825977    -2.18530
O765        O  0.23761892  0.04993240  0.54321794    -0.67210
O766        O  0.27628551  0.05966344  0.56047451    -0.51770
C767        C  0.25254597  0.05146307  0.56365358     0.71560
O768        O  0.29692200  0.86305073  0.51497073    -0.60120
O769        O  0.27047861  0.87115535  0.47673462    -0.52090
C770        C  0.28336668  0.84744605  0.49664158     0.73360
O771        O  0.33058813  0.97732608  0.56346353    -0.71510
O772        O  0.31059892  0.04383225  0.56099882    -0.50190
C773        C  0.32714936  0.01579414  0.57193585     0.74750
O774        O  0.20966129  0.92628347  0.50856663    -0.66840
O775        O  0.22243521  0.90727102  0.46902840    -0.54040
C776        C  0.20733123  0.90475522  0.48885649     0.73130
Zr777      Zr  0.23584473  0.98521360  0.52176776     2.77540
O778        O  0.22515928  0.93858498  0.56537137    -0.97590
O779        O  0.19124200  0.00844679  0.51903371    -0.78410
Zr780      Zr  0.30795865  0.93686572  0.52649839     2.70070
O781        O  0.30152717  0.88516059  0.56959408    -0.79660
O782        O  0.35073999  0.90681955  0.52450662    -0.98740
Zr783      Zr  0.26113747  0.94909452  0.46033769     2.21500
Zr784      Zr  0.29508277  0.05839040  0.51671362     2.11130
O785        O  0.27876983  0.98675909  0.53795143    -2.47430
O786        O  0.26427949  0.93325154  0.50932132    -0.79450
O787        O  0.25133484  0.05869475  0.50346623    -0.71650
O788        O  0.30479285  0.94725000  0.47708619    -2.32600
O789        O  0.23451700  0.00333467  0.47410361    -2.28810
O790        O  0.32365960  0.00633863  0.50348275    -0.73410
H791        H  0.30321083  0.10515152  0.46190864     0.78590
H792        H  0.31400347  0.92329242  0.47128883     0.79680
H793        H  0.27901633  0.98099916  0.55755008     0.81900
H794        H  0.21684538  0.00071086  0.46843019     0.79510
H795        H  0.35911798  0.94957706  0.46221983     0.42550
H796        H  0.36207598  0.93357879  0.52269819     0.41520
H797        H  0.28271619  0.88242816  0.57083532     0.41190
H798        H  0.24149612  0.93362998  0.57602830     0.39130
H799        H  0.19140046  0.03996023  0.50876986     0.42260
H800        H  0.19836832  0.09137133  0.45784752     0.37040
H801        H  0.27611059  0.10818685  0.40528654     0.43160
H802        H  0.32814511  0.09804883  0.41555156     0.39580
H803        H  0.21502148  0.95850905  0.57455236     0.44490
H804        H  0.20828212  0.12866043  0.43403278     0.43220
H805        H  0.35024895  0.06525808  0.41180265     0.43350
H806        H  0.35448974  0.88981652  0.54324187     0.43710
O807        O  0.22705570  0.54957904  0.42825650    -0.75160
O808        O  0.22934723  0.47364482  0.42964900    -0.54070
C809        C  0.22104354  0.51399825  0.41924376     0.78570
O810        O  0.35412719  0.54648674  0.48158243    -0.59760
O811        O  0.33935447  0.58441391  0.51306071    -0.52790
C812        C  0.35701856  0.57400258  0.49801774     0.70580
O813        O  0.31833441  0.45515625  0.43126955    -0.74320
O814        O  0.27963428  0.42013325  0.43307209    -0.54880
C815        C  0.30200745  0.42789781  0.42324464     0.76590
O816        O  0.26323885  0.64418667  0.47560318    -0.59460
O817        O  0.28788081  0.63264196  0.51474185    -0.52580
C818        C  0.27562881  0.65798684  0.49521535     0.73180
Zr819      Zr  0.25421619  0.57135870  0.46259566     2.54710
O820        O  0.26736546  0.61926747  0.42031150    -0.80030
O821        O  0.21357311  0.61040583  0.46190482    -0.93450
Zr822      Zr  0.32017348  0.50531562  0.46458269     2.64680
O823        O  0.33191343  0.55837464  0.42364436    -0.98400
O824        O  0.36042231  0.46549040  0.46488242    -0.80460
O825        O  0.27715768  0.51219766  0.44825239    -0.83820
O826        O  0.29778042  0.56729023  0.47606940    -2.18530
O827        O  0.23672497  0.55334707  0.55080836    -0.67210
O828        O  0.27601710  0.55371820  0.56799894    -0.51770
C829        C  0.25189026  0.55181046  0.57125608     0.71560
O830        O  0.29325321  0.35661328  0.52503274    -0.60120
O831        O  0.26815701  0.36619262  0.48555305    -0.52090
C832        C  0.28074725  0.34193981  0.50549520     0.73360
O833        O  0.32317013  0.47419188  0.57589267    -0.71510
O834        O  0.33079141  0.54669275  0.55635313    -0.50190
C835        C  0.33112916  0.51575349  0.57722697     0.74750
O836        O  0.20355247  0.43982976  0.51490075    -0.66840
O837        O  0.21785788  0.40575225  0.48139572    -0.54040
C838        C  0.20103549  0.41234220  0.49840184     0.73130
Zr839      Zr  0.23529552  0.48776216  0.53044398     2.77540
O840        O  0.22865361  0.43348944  0.57259844    -0.97590
O841        O  0.19287976  0.51045161  0.54105210    -0.78410
Zr842      Zr  0.30472751  0.43076696  0.53742578     2.70070
O843        O  0.29847603  0.37669631  0.57966106    -0.79660
O844        O  0.34835527  0.40325084  0.53749595    -0.98740
Zr845      Zr  0.25807632  0.44408027  0.47025195     2.21500
Zr846      Zr  0.29706690  0.55447951  0.52447219     2.11130
O847        O  0.27815497  0.48567819  0.54790590    -2.47430
O848        O  0.26105866  0.43069122  0.51947380    -0.79450
O849        O  0.25332179  0.55873579  0.51043958    -0.71650
O850        O  0.30162942  0.43884318  0.48803483    -2.32600
O851        O  0.23360068  0.50268344  0.48230341    -2.28810
O852        O  0.32268705  0.49683762  0.51304365    -0.73410
H853        H  0.30626085  0.59540536  0.46890451     0.78590
H854        H  0.31032296  0.41385135  0.48278486     0.79680
H855        H  0.27816284  0.47936259  0.56754306     0.81900
H856        H  0.21607525  0.50249090  0.47561839     0.79510
H857        H  0.36007312  0.44152785  0.48148053     0.42550
H858        H  0.35823965  0.42060946  0.54928354     0.41520
H859        H  0.28018732  0.36824232  0.57882940     0.41190
H860        H  0.24535742  0.42945652  0.58259426     0.39130
H861        H  0.18931187  0.53840909  0.52747429     0.42260
H862        H  0.20050954  0.58619897  0.46488740     0.37040
H863        H  0.28005756  0.60097977  0.41293410     0.43160
H864        H  0.33549071  0.58707605  0.42992402     0.39580
H865        H  0.21775513  0.44931513  0.58359214     0.44490
H866        H  0.21066021  0.62577701  0.44265557     0.43220
H867        H  0.34888467  0.54789525  0.41924515     0.43350
H868        H  0.34780024  0.37213583  0.54831188     0.43710
O869        O  0.47048306  0.31669050  0.43775106    -0.75160
O870        O  0.47771884  0.25053121  0.42446596    -0.54070
C871        C  0.46719379  0.29092065  0.42095707     0.78570
O872        O  0.10429162  0.29100924  0.48785815    -0.59760
O873        O  0.08919969  0.32254896  0.52237567    -0.52790
C874        C  0.10703835  0.31397194  0.50681605     0.70580
O875        O  0.06775034  0.20784977  0.43278380    -0.74320
O876        O  0.02855499  0.17756821  0.42783136    -0.54880
C877        C  0.05198768  0.18318923  0.42137347     0.76590
O878        O  0.01539800  0.39794153  0.47841600    -0.59460
O879        O  0.03857917  0.38276239  0.51844878    -0.52580
C880        C  0.02739445  0.40953707  0.49876574     0.73180
Zr881      Zr  0.00537696  0.32611076  0.46629617     2.54710
O882        O  0.02109140  0.36882224  0.42358721    -0.80030
O883        O  0.47042304  0.37542064  0.47513679    -0.93450
Zr884      Zr  0.06931685  0.25682918  0.46745394     2.64680
O885        O  0.08266865  0.31273565  0.42852093    -0.98400
O886        O  0.10790249  0.21279599  0.46624371    -0.80460
O887        O  0.02772920  0.27059037  0.44752464    -0.83820
O888        O  0.04820783  0.31891312  0.48105710    -2.18530
O889        O  0.48403881  0.30238808  0.54692267    -0.67210
O890        O  0.02019124  0.31240274  0.56878751    -0.51770
C891        C  0.49634759  0.30209636  0.56934618     0.71560
O892        O  0.03738992  0.10958735  0.52208760    -0.60120
O893        O  0.01314001  0.12338909  0.48198773    -0.52090
C894        C  0.02489770  0.09701897  0.50191044     0.73360
O895        O  0.06953880  0.21750576  0.57819466    -0.71510
O896        O  0.06666320  0.29427091  0.56944877    -0.50190
C897        C  0.07359365  0.25801536  0.58482823     0.74750
O898        O  0.46538685  0.18865590  0.49647965    -0.66840
O899        O  0.46738990  0.15869158  0.46173465    -0.54040
C900        C  0.45482730  0.16278278  0.48222847     0.73130
Zr901      Zr  0.48008673  0.23410755  0.52872657     2.77540
O902        O  0.47559232  0.16241959  0.56081643    -0.97590
O903        O  0.43520430  0.24718815  0.53580397    -0.78410
Zr904      Zr  0.04908689  0.18049335  0.53726287     2.70070
O905        O  0.03794610  0.12663311  0.57808857    -0.79660
O906        O  0.09132951  0.14663608  0.53901035    -0.98740
Zr907      Zr  0.00577291  0.20280462  0.46361716     2.21500
Zr908      Zr  0.04406870  0.30296964  0.52888792     2.11130
O909        O  0.02244608  0.23411785  0.54905858    -2.47430
O910        O  0.50753315  0.18399615  0.51378805    -0.79450
O911        O  0.50088720  0.30528921  0.51323733    -0.71650
O912        O  0.04760023  0.19192620  0.48706254    -2.32600
O913        O  0.48112223  0.25751878  0.48067635    -2.28810
O914        O  0.06965996  0.24582874  0.51644537    -0.73410
H915        H  0.05746665  0.34670743  0.47518149     0.78590
H916        H  0.05629089  0.16695109  0.48179721     0.79680
H917        H  0.02181273  0.22875094  0.56874483     0.81900
H918        H  0.46358921  0.26122695  0.47392186     0.79510
H919        H  0.10674254  0.18763529  0.48213423     0.42550
H920        H  0.10274111  0.16760064  0.54680528     0.41520
H921        H  0.02045378  0.11653011  0.57404619     0.41190
H922        H  0.48446103  0.16451113  0.57835068     0.39130
H923        H  0.43026566  0.27229313  0.52069366     0.42260
H924        H  0.45974476  0.35585070  0.48861622     0.37040
H925        H  0.01953996  0.34802413  0.41047024     0.43160
H926        H  0.08662377  0.34012091  0.43610689     0.39580
H927        H  0.45712273  0.15908355  0.56427501     0.44490
H928        H  0.45925923  0.38244779  0.45851922     0.43220
H929        H  0.09953050  0.30188941  0.42405884     0.43350
H930        H  0.09043585  0.11944409  0.55364064     0.43710
O931        O  0.47825407  0.80024568  0.42587398    -0.75160
O932        O  0.48279876  0.72526827  0.42536552    -0.54070
C933        C  0.47293145  0.76497894  0.41634046     0.78570
O934        O  0.10716073  0.79678746  0.47643903    -0.59760
O935        O  0.09300202  0.83361133  0.50922986    -0.52790
C936        C  0.11000540  0.82339280  0.49340937     0.70580
O937        O  0.07166258  0.69590021  0.43101412    -0.74320
O938        O  0.03289847  0.66185901  0.43184605    -0.54880
C939        C  0.05591620  0.66707676  0.42336278     0.76590
O940        O  0.01492124  0.89581384  0.47088686    -0.59460
O941        O  0.04171394  0.88672406  0.50827245    -0.52580
C942        C  0.02741258  0.91070993  0.49005894     0.73180
Zr943      Zr  0.00908899  0.82317815  0.45613097     2.54710
O944        O  0.02761248  0.86226550  0.41390936    -0.80030
O945        O  0.47304274  0.87502620  0.44709883    -0.93450
Zr946      Zr  0.07364431  0.75290280  0.46093014     2.64680
O947        O  0.08582197  0.79925580  0.41774675    -0.98400
O948        O  0.11423194  0.71300729  0.46472787    -0.80460
O949        O  0.03119490  0.76164649  0.44300776    -0.83820
O950        O  0.05226454  0.81784150  0.47080701    -2.18530
O951        O  0.48975128  0.81235719  0.54291992    -0.67210
O952        O  0.02831451  0.81870425  0.56086371    -0.51770
C953        C  0.00409705  0.81371358  0.56371295     0.71560
O954        O  0.04423872  0.61048679  0.52403602    -0.60120
O955        O  0.01755822  0.61692163  0.48582057    -0.52090
C956        C  0.03050895  0.59436145  0.50613509     0.73360
O957        O  0.07792962  0.72335083  0.57185299    -0.71510
O958        O  0.07587478  0.79948832  0.55771012    -0.50190
C959        C  0.08303650  0.76510536  0.57493676     0.74750
O960        O  0.45825131  0.68931030  0.51157676    -0.66840
O961        O  0.47066761  0.65969659  0.47567692    -0.54040
C962        C  0.45496116  0.66324799  0.49424267     0.73130
Zr963      Zr  0.48745539  0.74394439  0.52496105     2.77540
O964        O  0.47873872  0.69954711  0.56995243    -0.97590
O965        O  0.44335520  0.76851800  0.52579257    -0.78410
Zr966      Zr  0.05591777  0.68439566  0.53434366     2.70070
O967        O  0.04672298  0.63382417  0.57713318    -0.79660
O968        O  0.09857073  0.65259985  0.53449836    -0.98740
Zr969      Zr  0.01114065  0.69505750  0.46601813     2.21500
Zr970      Zr  0.04964057  0.80842585  0.51912895     2.11130
O971        O  0.02992401  0.74168675  0.54347684    -2.47430
O972        O  0.01280265  0.68547698  0.51519007    -0.79450
O973        O  0.00638347  0.81318883  0.50375986    -0.71650
O974        O  0.05403178  0.68854987  0.48527048    -2.32600
O975        O  0.48748418  0.75582330  0.47693219    -2.28810
O976        O  0.07496188  0.74883308  0.50936723    -0.73410
H977        H  0.06121214  0.84533728  0.46335005     0.78590
H978        H  0.06240870  0.66233169  0.48118517     0.79680
H979        H  0.03007724  0.73914102  0.56306518     0.81900
H980        H  0.46986611  0.75551294  0.47058610     0.79510
H981        H  0.11071078  0.68308435  0.47611752     0.42550
H982        H  0.10929396  0.66972374  0.54572406     0.41520
H983        H  0.02781629  0.63262690  0.57740726     0.41190
H984        H  0.49208943  0.70772277  0.58263876     0.39130
H985        H  0.44085127  0.79089504  0.50860036     0.42260
H986        H  0.45769451  0.85629104  0.45220076     0.37040
H987        H  0.02403992  0.84227908  0.40061417     0.43160
H988        H  0.08677524  0.83036496  0.42138708     0.39580
H989        H  0.46272984  0.71228357  0.57529026     0.44490
H990        H  0.47158523  0.88438827  0.42695539     0.43220
H991        H  0.10383113  0.79092588  0.41575682     0.43350
H992        H  0.09726261  0.62199062  0.54585908     0.43710
C993        C  0.03038524  0.54590161  0.50764244    -0.00020
C994        C  0.05162248  0.52673250  0.49785525    -0.11900
C995        C  0.05065143  0.48231138  0.49385764     0.02210
C996        C  0.02830065  0.45690058  0.50013961    -0.00110
C997        C  0.00715043  0.47578764  0.51013509    -0.11840
C998        C  0.00795328  0.52041758  0.51371630     0.02100
H999        H  0.06847402  0.54711955  0.49219110     0.15080
H1000       H  0.48974184  0.45591928  0.51487440     0.15080
C1001       C  0.48554625  0.53949268  0.52356554     0.36730
C1002       C  0.07211359  0.46415248  0.48200268     0.36640
N1003       N  0.46767801  0.55432406  0.53167566    -0.43610
N1004       N  0.08906680  0.44972238  0.47207380    -0.43610
C1005       C  0.02486104  0.04869737  0.49988835    -0.00020
C1006       C  0.02432066  0.03821103  0.47353130    -0.11900
C1007       C  0.02433097  0.99365192  0.46957889     0.02210
C1008       C  0.02516133  0.95833145  0.49244312    -0.00110
C1009       C  0.02565148  0.96853445  0.51885723    -0.11840
C1010       C  0.02556964  0.01313324  0.52278816     0.02100
H1011       H  0.02465835  0.06519570  0.45588585     0.15080
H1012       H  0.02617263  0.94139077  0.53662834     0.15080
C1013       C  0.02584398  0.02081083  0.55048334     0.36730
C1014       C  0.02490617  0.98526268  0.44202589     0.36640
N1015       N  0.02612687  0.02589561  0.57291465    -0.43610
N1016       N  0.02538877  0.97843124  0.41997823    -0.43610
C1017       C  0.13206276  0.33527802  0.50879590    -0.00020
C1018       C  0.13208338  0.38069754  0.51086194    -0.11900
C1019       C  0.15397622  0.40676410  0.50578558     0.02210
C1020       C  0.17701195  0.38666348  0.50012770    -0.00110
C1021       C  0.17738769  0.34052956  0.49918390    -0.11840
C1022       C  0.15504983  0.31467261  0.50332530     0.02100
H1023       H  0.11442332  0.39676302  0.51459757     0.15080
H1024       H  0.19514931  0.32462509  0.49559109     0.15080
C1025       C  0.15635445  0.26715933  0.50234750     0.36730
C1026       C  0.15156154  0.45473712  0.50460508     0.36640
N1027       N  0.15761748  0.22912390  0.50161876    -0.43610
N1028       N  0.14911763  0.49314889  0.50337020    -0.43610
C1029       C  0.38263318  0.59469569  0.49895261    -0.00020
C1030       C  0.40116030  0.58413340  0.48120694    -0.11900
C1031       C  0.42512953  0.60464659  0.47962349     0.02210
C1032       C  0.43097941  0.63694732  0.49602377    -0.00110
C1033       C  0.41299607  0.64552031  0.51476660    -0.11840
C1034       C  0.38918233  0.62481186  0.51649093     0.02100
H1035       H  0.39693749  0.56009810  0.46803062     0.15080
H1036       H  0.41722009  0.66934244  0.52808247     0.15080
C1037       C  0.37218883  0.63598185  0.53641634     0.36730
C1038       C  0.44296645  0.59142869  0.46103358     0.36640
N1039       N  0.35891885  0.64550424  0.55251975    -0.43610
N1040       N  0.45708665  0.58048303  0.44613574    -0.43610
C1041       C  0.18395422  0.87939418  0.48793218    -0.00020
C1042       C  0.16388493  0.90151221  0.47165140    -0.11900
C1043       C  0.13919336  0.88457260  0.47437765     0.02210
C1044       C  0.13471607  0.84477432  0.49334897    -0.00110
C1045       C  0.15491168  0.82150015  0.50892463    -0.11840
C1046       C  0.17965268  0.83897222  0.50655306     0.02100
H1047       H  0.16734714  0.93317273  0.45774160     0.15080
H1048       H  0.15131563  0.78986006  0.52276500     0.15080
C1049       C  0.20020045  0.81533431  0.52330322     0.36730
C1050       C  0.11863062  0.90859079  0.45781590     0.36640
N1051       N  0.21664060  0.79628385  0.53670359    -0.43610
N1052       N  0.10199719  0.92763424  0.44475354    -0.43610
C1053       C  0.28161539  0.79838282  0.49806822    -0.00020
C1054       C  0.25842424  0.78089481  0.48931138    -0.11900
C1055       C  0.25587004  0.73532388  0.48807885     0.02210
C1056       C  0.27692448  0.70642902  0.49551893    -0.00110
C1057       C  0.30001091  0.72368030  0.50461097    -0.11840
C1058       C  0.30254697  0.76924252  0.50593348     0.02100
H1059       H  0.24211012  0.80300339  0.48343418     0.15080
H1060       H  0.31635086  0.70154124  0.51029477     0.15080
C1061       C  0.32714487  0.78526729  0.51405348     0.36730
C1062       C  0.23123174  0.71904541  0.48021929     0.36640
N1063       N  0.34695180  0.79777552  0.52052579    -0.43610
N1064       N  0.21137821  0.70633601  0.47403462    -0.43610
C1065       C  0.26719416  0.20586341  0.49724680    -0.00020
C1066       C  0.27699725  0.23689025  0.47584420    -0.11900
C1067       C  0.28451562  0.27940111  0.47978524     0.02210
C1068       C  0.28007270  0.29347956  0.50464901    -0.00110
C1069       C  0.26995199  0.26253202  0.52625648    -0.11840
C1070       C  0.26421557  0.21832196  0.52298175     0.02100
H1071       H  0.28121295  0.22636644  0.45680282     0.15080
H1072       H  0.26626964  0.27296198  0.54541225     0.15080
C1073       C  0.25566751  0.18627497  0.54629070     0.36730
C1074       C  0.29990402  0.30522066  0.45920576     0.36640
N1075       N  0.24904615  0.16071349  0.56514056    -0.43610
N1076       N  0.31345561  0.32287438  0.44273332    -0.43610
C1077       C  0.38017170  0.10614172  0.49189823    -0.00020
C1078       C  0.39981278  0.08188222  0.48257118    -0.11900
C1079       C  0.42439410  0.09918349  0.47945036     0.02210
C1080       C  0.43017639  0.14027289  0.48763586    -0.00110
C1081       C  0.41122849  0.16330557  0.49859077    -0.11840
C1082       C  0.38609255  0.14731484  0.50015706     0.02100
H1083       H  0.39567966  0.04984229  0.47649119     0.15080
H1084       H  0.41559893  0.19568512  0.50402031     0.15080
C1085       C  0.36686997  0.17713659  0.50665355     0.36730
C1086       C  0.44290812  0.07439682  0.46725752     0.36640
N1087       N  0.35244752  0.20339654  0.51122470    -0.43610
N1088       N  0.45740399  0.05449853  0.45712024    -0.43610
C1089       C  0.20687710  0.99388027  0.62770425    -0.00020
C1090       C  0.23182795  0.97813777  0.62817093    -0.11900
C1091       C  0.24920801  0.00012696  0.60951044     0.02210
C1092       C  0.24150476  0.03937657  0.59051895    -0.00110
C1093       C  0.21715705  0.05712108  0.59198515    -0.11840
C1094       C  0.19949031  0.03369963  0.60931166     0.02100
H1095       H  0.23775956  0.94882718  0.64326708     0.15080
H1096       H  0.21096764  0.08674524  0.57727535     0.15080
C1097       C  0.17357799  0.05064033  0.60721017     0.36730
C1098       C  0.27336888  0.97800668  0.60913768     0.36640
N1099       N  0.15288560  0.06440918  0.60500642    -0.43610
N1100       N  0.29175989  0.95678304  0.60990836    -0.43610
C1101       C  0.09728009  0.78052931  0.59877495    -0.00020
C1102       C  0.11132486  0.82140593  0.59183611    -0.11900
C1103       C  0.11594276  0.85089685  0.61021475     0.02210
C1104       C  0.10815331  0.83955776  0.63744153    -0.00110
C1105       C  0.09638216  0.79669229  0.64557218    -0.11840
C1106       C  0.09081971  0.76758893  0.62651966     0.02100
H1107       H  0.11682521  0.83262400  0.57081437     0.15080
H1108       H  0.09141871  0.78594797  0.66676379     0.15080
C1109       C  0.07895312  0.72439376  0.63576134     0.36730
C1110       C  0.12743363  0.89433689  0.60007243     0.36640
N1111       N  0.07000869  0.68909788  0.64292722    -0.43610
N1112       N  0.13630843  0.92939610  0.59196350    -0.43610
C1113       C  0.21129185  0.48636409  0.63998365    -0.00020
C1114       C  0.20297636  0.52844050  0.62523348    -0.11900
C1115       C  0.21759761  0.55322703  0.60460830     0.02210
C1116       C  0.24118723  0.53620015  0.59846656    -0.00110
C1117       C  0.25055497  0.49588759  0.61476415    -0.11840
C1118       C  0.23551749  0.47043159  0.63500819     0.02100
H1119       H  0.18503678  0.54222259  0.63003214     0.15080
H1120       H  0.26882267  0.48254302  0.61058336     0.15080
C1121       C  0.24484699  0.42747542  0.64975266     0.36730
C1122       C  0.20833373  0.59652289  0.59016296     0.36640
N1123       N  0.25217080  0.39273678  0.66130491    -0.43610
N1124       N  0.20123503  0.63145256  0.57864379    -0.43610
C1125       C  0.09999439  0.33704338  0.64539910    -0.00020
C1126       C  0.08022421  0.30452570  0.65174580    -0.11900
C1127       C  0.07367990  0.27240729  0.63459001     0.02210
C1128       C  0.08704468  0.27052281  0.61035643    -0.00110
C1129       C  0.10748157  0.30196958  0.60504532    -0.11840
C1130       C  0.11357847  0.33459137  0.62151925     0.02100
H1131       H  0.06972452  0.30408335  0.67016960     0.15080
H1132       H  0.11730311  0.30418521  0.58599878     0.15080
C1133       C  0.13264193  0.36830348  0.61194703     0.36730
C1134       C  0.05274451  0.24174515  0.64202283     0.36640
N1135       N  0.14761355  0.39583108  0.60421952    -0.43610
N1136       N  0.03621890  0.21649951  0.64807648    -0.43610
C1137       C  0.14997527  0.65402517  0.74052127    -0.00020
C1138       C  0.12570158  0.67285403  0.74116926    -0.11900
C1139       C  0.12272592  0.71933913  0.73757078     0.02210
C1140       C  0.14453001  0.74729268  0.73390703    -0.00110
C1141       C  0.16886758  0.72831114  0.73349628    -0.11840
C1142       C  0.17174795  0.68176270  0.73670465     0.02100
H1143       H  0.10892828  0.65120977  0.74342345     0.15080
H1144       H  0.18567218  0.74982854  0.73111263     0.15080
C1145       C  0.19713633  0.66331126  0.73684366     0.36730
C1146       C  0.09709208  0.73736225  0.73616060     0.36640
N1147       N  0.21760047  0.64894072  0.73709576    -0.43610
N1148       N  0.07648276  0.75144192  0.73483154    -0.43610
C1149       C  0.14210639  0.15629384  0.73717610    -0.00020
C1150       C  0.11821173  0.17519526  0.73995601    -0.11900
C1151       C  0.11595447  0.22031752  0.74224690     0.02210
C1152       C  0.13806856  0.24721407  0.74140389    -0.00110
C1153       C  0.16201840  0.22850924  0.73811005    -0.11840
C1154       C  0.16420364  0.18339889  0.73579904     0.02100
H1155       H  0.10121320  0.15495549  0.73914757     0.15080
H1156       H  0.17905305  0.24946349  0.73696686     0.15080
C1157       C  0.18920685  0.16611549  0.73195311     0.36730
C1158       C  0.09074026  0.23875878  0.74359522     0.36640
N1159       N  0.20938166  0.15300127  0.72871417    -0.43610
N1160       N  0.07050099  0.25343294  0.74458917    -0.43610
C1161       C  0.36105061  0.58701302  0.64198530    -0.00020
C1162       C  0.33923182  0.60126124  0.62609137    -0.11900
C1163       C  0.32936845  0.57821831  0.60607976     0.02210
C1164       C  0.33904528  0.53492591  0.60285255    -0.00110
C1165       C  0.36050140  0.51910997  0.61989971    -0.11840
C1166       C  0.37185516  0.54503254  0.63857236     0.02100
H1167       H  0.33092076  0.63356469  0.62752966     0.15080
H1168       H  0.36965210  0.48821227  0.61724071     0.15080
C1169       C  0.39520703  0.52844063  0.65305146     0.36730
C1170       C  0.31174462  0.60545120  0.58710771     0.36640
N1171       N  0.41416075  0.51535087  0.66430630    -0.43610
N1172       N  0.29864977  0.63092562  0.57270846    -0.43610
C1173       C  0.47104143  0.74397150  0.63750059    -0.00020
C1174       C  0.45558813  0.76936388  0.61675969    -0.11900
C1175       C  0.46632318  0.79788255  0.59443417     0.02210
C1176       C  0.49311916  0.79856779  0.59122156    -0.00110
C1177       C  0.00867665  0.77568388  0.61292663    -0.11840
C1178       C  0.49784220  0.74992954  0.63640784     0.02100
H1179       H  0.43498700  0.76837535  0.61858514     0.15080
H1180       H  0.02929450  0.77674744  0.61133931     0.15080
C1181       C  0.01451640  0.73098880  0.65922280     0.36730
C1182       C  0.44943789  0.82736809  0.57566830     0.36640
N1183       N  0.02798535  0.71676142  0.67768365    -0.43610
N1184       N  0.43590835  0.85153826  0.56096940    -0.43610
C1185       C  0.05380840  0.58290977  0.72792387    -0.00020
C1186       C  0.03975633  0.59144285  0.70294358    -0.11900
C1187       C  0.01582920  0.61152326  0.70102666     0.02210
C1188       C  0.00624071  0.62521159  0.72412366    -0.00110
C1189       C  0.02156025  0.62183199  0.74805499    -0.11840
C1190       C  0.04516609  0.60054502  0.75033691     0.02100
H1191       H  0.04674433  0.57992014  0.68520668     0.15080
H1192       H  0.01432781  0.63311898  0.76577222     0.15080
C1193       C  0.05866487  0.59453293  0.77657800     0.36730
C1194       C  0.00154100  0.61692784  0.67533047     0.36640
N1195       N  0.06914708  0.59004805  0.79773940    -0.43610
N1196       N  0.49029349  0.62103422  0.65465878    -0.43610
C1197       C  0.30047946  0.82190251  0.72031610    -0.00020
C1198       C  0.29547137  0.84540134  0.74133252    -0.11900
C1199       C  0.27188435  0.86667930  0.74278015     0.02210
C1200       C  0.25194188  0.86483897  0.72280675    -0.00110
C1201       C  0.25771185  0.84445635  0.70058609    -0.11840
C1202       C  0.28160956  0.82402093  0.69888318     0.02100
H1203       H  0.30979300  0.84597255  0.75749690     0.15080
H1204       H  0.24344955  0.84434413  0.68431576     0.15080
C1205       C  0.28616228  0.80659371  0.67443527     0.36730
C1206       C  0.26909132  0.88910298  0.76564564     0.36640
N1207       N  0.28983445  0.79313506  0.65466680    -0.43610
N1208       N  0.26744354  0.90701108  0.78407774    -0.43610
C1209       C  0.35229484  0.08214166  0.63941058    -0.00020
C1210       C  0.35370019  0.10404473  0.61237346    -0.11900
C1211       C  0.34626383  0.08266684  0.59073050     0.02210
C1212       C  0.34140372  0.03466197  0.59470904    -0.00110
C1213       C  0.34159547  0.01193683  0.62222133    -0.11840
C1214       C  0.34491062  0.03587976  0.64423238     0.02100
H1215       H  0.35798485  0.13995139  0.60822730     0.15080
H1216       H  0.33593049  0.97682031  0.62671596     0.15080
C1217       C  0.33510796  0.01507627  0.67022653     0.36730
C1218       C  0.33764298  0.11394434  0.56661322     0.36640
N1219       N  0.32510215  0.99853095  0.69000213    -0.43610
N1220       N  0.32811458  0.13962107  0.54903681    -0.43610
C1221       C  0.46378053  0.22473440  0.64127068    -0.00020
C1222       C  0.48045121  0.26110100  0.64359238    -0.11900
C1223       C  0.49112062  0.28750865  0.62049623     0.02210
C1224       C  0.48547964  0.27707899  0.59475367    -0.00110
C1225       C  0.46973390  0.23986205  0.59291332    -0.11840
C1226       C  0.45975032  0.21248646  0.61589844     0.02100
H1227       H  0.48323711  0.27137544  0.66318679     0.15080
H1228       H  0.46486263  0.23268629  0.57325673     0.15080
C1229       C  0.44377919  0.17426088  0.61292364     0.36730
C1230       C  0.50508366  0.32794642  0.62320598     0.36640
N1231       N  0.43129123  0.14304119  0.61116081    -0.43610
N1232       N  0.01604606  0.36062981  0.62508298    -0.43610
C1233       C  0.49038586  0.09220962  0.72727781    -0.00020
C1234       C  0.01116334  0.10753716  0.74157661    -0.11900
C1235       C  0.03559315  0.08988602  0.74118281     0.02210
C1236       C  0.04010835  0.05668044  0.72532949    -0.00110
C1237       C  0.01932749  0.04177944  0.71061614    -0.11840
C1238       C  0.49462484  0.05842097  0.71184218     0.02100
H1239       H  0.00841313  0.13349555  0.75356197     0.15080
H1240       H  0.02204900  0.01549545  0.69888144     0.15080
C1241       C  0.47408331  0.03832941  0.69814862     0.36730
C1242       C  0.05489275  0.10628766  0.75817069     0.36640
N1243       N  0.45768113  0.02182943  0.68734584    -0.43610
N1244       N  0.06925218  0.12019413  0.77265127    -0.43610
C1245       C  0.39559878  0.98941764  0.74622131    -0.00020
C1246       C  0.37816561  0.96983652  0.73038963    -0.11900
C1247       C  0.38269983  0.92761631  0.72483352     0.02210
C1248       C  0.40446606  0.90386091  0.73663578    -0.00110
C1249       C  0.42189670  0.92284152  0.75320770    -0.11840
C1250       C  0.41782568  0.96651901  0.75755258     0.02100
H1251       H  0.36161025  0.98875862  0.72154267     0.15080
H1252       H  0.43835462  0.90364145  0.76266441     0.15080
C1253       C  0.43646192  0.98759635  0.77312651     0.36730
C1254       C  0.36490629  0.90924411  0.70695851     0.36640
N1255       N  0.45122921  0.00499463  0.78550805    -0.43610
N1256       N  0.35090533  0.89459187  0.69242695    -0.43610
C1257       C  0.39150483  0.40083354  0.73627259    -0.00020
C1258       C  0.41554639  0.42195455  0.73274708    -0.11900
C1259       C  0.41828180  0.46854212  0.73195656     0.02210
C1260       C  0.39660271  0.49475560  0.73479040    -0.00110
C1261       C  0.37268922  0.47350365  0.73828411    -0.11840
C1262       C  0.36994935  0.42730540  0.73860723     0.02100
H1263       H  0.43222051  0.40196237  0.73056089     0.15080
H1264       H  0.35580417  0.49347060  0.73971652     0.15080
C1265       C  0.34445809  0.40918425  0.73862255     0.36730
C1266       C  0.44350997  0.48830290  0.72876487     0.36640
N1267       N  0.32369042  0.39614722  0.73788452    -0.43610
N1268       N  0.46368754  0.50422788  0.72614624    -0.43610
C1269       C  0.24043370  0.34111671  0.73230737    -0.00020
C1270       C  0.24221108  0.31247347  0.71345669    -0.11900
C1271       C  0.26485150  0.29007437  0.71107626     0.02210
C1272       C  0.28606206  0.29485051  0.72880255    -0.00110
C1273       C  0.28380059  0.32214019  0.74829421    -0.11840
C1274       C  0.26188388  0.34666630  0.74952796     0.02100
H1275       H  0.22595251  0.30789598  0.70016902     0.15080
H1276       H  0.29951052  0.32532425  0.76254513     0.15080
C1277       C  0.26315182  0.37827964  0.76801366     0.36730
C1278       C  0.26512413  0.26254660  0.69034335     0.36640
N1279       N  0.26513565  0.40340958  0.78283555    -0.43610
N1280       N  0.26499852  0.24082601  0.67355347    -0.43610
C1281       C  0.46008892  0.66566375  0.88836197    -0.00020
C1282       C  0.43623744  0.65216670  0.87908210    -0.11900
C1283       C  0.42344169  0.67703189  0.85615679     0.02210
C1284       C  0.43333695  0.71856388  0.84247232    -0.00110
C1285       C  0.45647533  0.73396609  0.85282662    -0.11840
C1286       C  0.46995398  0.70799829  0.87536018     0.02100
H1287       H  0.42833959  0.61970515  0.88836035     0.15080
H1288       H  0.46490037  0.76506526  0.84215534     0.15080
C1289       C  0.49411913  0.72511836  0.88391229     0.36730
C1290       C  0.40294212  0.65402753  0.84482692     0.36640
N1291       N  0.01354077  0.73882182  0.89060664    -0.43610
N1292       N  0.38730013  0.63233305  0.83679400    -0.43610
C1293       C  0.06317719  0.52423915  0.87928950    -0.00020
C1294       C  0.04572290  0.50524145  0.86236961    -0.11900
C1295       C  0.05396931  0.48014662  0.84289765     0.02210
C1296       C  0.08023534  0.47171258  0.84040770    -0.00110
C1297       C  0.09757208  0.49062503  0.85749130    -0.11840
C1298       C  0.08941670  0.51611712  0.87658514     0.02100
H1299       H  0.02539938  0.50851704  0.86512193     0.15080
H1300       H  0.11792362  0.48718249  0.85504431     0.15080
C1301       C  0.10849150  0.53340981  0.89350047     0.36730
C1302       C  0.03509810  0.46365792  0.82549269     0.36640
N1303       N  0.12391501  0.54742836  0.90683150    -0.43610
N1304       N  0.01987005  0.45035634  0.81162318    -0.43610
C1305       C  0.42631843  0.18413115  0.84057543    -0.00020
C1306       C  0.45122365  0.19467947  0.84874485    -0.11900
C1307       C  0.46714898  0.16200217  0.86452032     0.02210
C1308       C  0.45732192  0.11927939  0.87694345    -0.00110
C1309       C  0.43238313  0.10869634  0.86983318    -0.11840
C1310       C  0.41773694  0.13914212  0.85040380     0.02100
H1311       H  0.45938933  0.22728440  0.84017432     0.15080
H1312       H  0.42472495  0.07576165  0.87855007     0.15080
C1313       C  0.39788171  0.11835685  0.83700126     0.36730
C1314       C  0.49412839  0.17217460  0.86608527     0.36640
N1315       N  0.38403388  0.09644499  0.82668524    -0.43610
N1316       N  0.01575330  0.18044291  0.86626211    -0.43610
C1317       C  0.05189601  0.97576058  0.87966174    -0.00020
C1318       C  0.06382432  0.00961596  0.86121608    -0.11900
C1319       C  0.07587163  0.00044022  0.83828843     0.02210
C1320       C  0.07432370  0.95656017  0.83124921    -0.00110
C1321       C  0.06248613  0.92227102  0.84992996    -0.11840
C1322       C  0.05254806  0.93113352  0.87455589     0.02100
H1323       H  0.06485921  0.04355201  0.86551678     0.15080
H1324       H  0.06217656  0.88812595  0.84605688     0.15080
C1325       C  0.04716881  0.89325078  0.89584616     0.36730
C1326       C  0.09160288  0.03657572  0.82408011     0.36640
N1327       N  0.04443184  0.86215456  0.91305628    -0.43610
N1328       N  0.10448733  0.06542087  0.81323449    -0.43610
C1329       C  0.01269756  0.83899689  0.97415361    -0.00020
C1330       C  0.02435362  0.80793006  0.99576302    -0.11900
C1331       C  0.02409026  0.76155480  0.99604261     0.02210
C1332       C  0.01217364  0.74466559  0.97428595    -0.00110
C1333       C  0.00098700  0.77505419  0.95235075    -0.11840
C1334       C  0.00102738  0.82178532  0.95207954     0.02100
H1335       H  0.03358376  0.81957458  0.01294476     0.15080
H1336       H  0.49155716  0.76218006  0.93577706     0.15080
C1337       C  0.98941223  0.85080947  0.92853943     0.36730
C1338       C  0.03644591  0.73194735  0.01895756     0.36640
N1339       N  0.48060250  0.87405131  0.90940366    -0.43610
N1340       N  0.04641041  0.70848599  0.03734410    -0.43610
C1341       C  0.01603794  0.32714965  0.01769081    -0.00020
C1342       C  0.03828490  0.30924555  0.00929308    -0.11900
C1343       C  0.03860757  0.26560720  0.00448685     0.02210
C1344       C  0.01736887  0.23744448  0.01107894    -0.00110
C1345       C  0.49541066  0.25420021  0.02114767    -0.11840
C1346       C  0.49431746  0.29950452  0.02379915     0.02100
H1347       H  0.05458711  0.33111507  0.00355650     0.15080
H1348       H  0.47875814  0.23266923  0.02536545     0.15080
C1349       C  0.47019376  0.31739387  0.03012260     0.36730
C1350       C  0.05886021  0.25401991  0.98824126     0.36640
N1351       N  0.45057917  0.33092286  0.03497706    -0.43610
N1352       N  0.07451855  0.24750803  0.97365674    -0.43610
C1353       C  0.32690509  0.70260078  0.83158691    -0.00020
C1354       C  0.33758975  0.68970676  0.85822179    -0.11900
C1355       C  0.32695019  0.70379748  0.88089894     0.02210
C1356       C  0.30475976  0.73103719  0.87755367    -0.00110
C1357       C  0.29331354  0.74224458  0.85123058    -0.11840
C1358       C  0.30432294  0.72907109  0.82846786     0.02100
H1359       H  0.35508089  0.67054905  0.86137216     0.15080
H1360       H  0.27617815  0.76282711  0.84823148     0.15080
C1361       C  0.29226666  0.74396631  0.80186003     0.36730
C1362       C  0.33920858  0.68971481  0.90750176     0.36640
N1363       N  0.28237157  0.75570606  0.78062162    -0.43610
N1364       N  0.34904133  0.67823173  0.92881125    -0.43610
C1365       C  0.20390430  0.86278274  0.86961301    -0.00020
C1366       C  0.17738107  0.86065401  0.86569069    -0.11900
C1367       C  0.16351763  0.89659386  0.84947349     0.02210
C1368       C  0.17616783  0.93645643  0.83643701    -0.00110
C1369       C  0.20290368  0.93826290  0.84085756    -0.11840
C1370       C  0.21665277  0.90207165  0.85637562     0.02100
H1371       H  0.16713591  0.83226279  0.87725892     0.15080
H1372       H  0.21349285  0.96785980  0.83136684     0.15080
C1373       C  0.24396063  0.90741448  0.86016272     0.36730
C1374       C  0.13635550  0.89114360  0.84903896     0.36640
N1375       N  0.26576679  0.91192325  0.86334111    -0.43610
N1376       N  0.11494832  0.88237109  0.85138006    -0.43610
C1377       C  0.15684943  0.70019217  0.95411704    -0.00020
C1378       C  0.15693557  0.65313579  0.95732224    -0.11900
C1379       C  0.13424275  0.62854185  0.96108628     0.02210
C1380       C  0.11086492  0.65133881  0.96112085    -0.00110
C1381       C  0.11044218  0.69863652  0.95617945    -0.11840
C1382       C  0.13329922  0.72322728  0.95313123     0.02100
H1383       H  0.17492838  0.63529697  0.95943036     0.15080
H1384       H  0.09242903  0.71617364  0.95626248     0.15080
C1385       C  0.13222287  0.77172361  0.95047625     0.36730
C1386       C  0.13552749  0.57985114  0.96597255     0.36640
N1387       N  0.13124458  0.81052682  0.94849808    -0.43610
N1388       N  0.13653014  0.54083728  0.96998681    -0.43610
C1389       C  0.35770386  0.90301403  0.98756441    -0.00020
C1390       C  0.37426952  0.89302120  0.96752343    -0.11900
C1391       C  0.39856534  0.91331338  0.96313085     0.02210
C1392       C  0.40708306  0.94515676  0.97876843    -0.00110
C1393       C  0.39030182  0.95481994  0.99890485    -0.11840
C1394       C  0.36623914  0.93411188  0.00346557     0.02100
H1395       H  0.36812229  0.86910465  0.95492584     0.15080
H1396       H  0.39577914  0.97921114  0.01143358     0.15080
C1397       C  0.35028331  0.94700584  0.02374624     0.36730
C1398       C  0.41416447  0.90032739  0.94263259     0.36640
N1399       N  0.33750894  0.95741394  0.04000745    -0.43610
N1400       N  0.42640174  0.88952811  0.92608025    -0.43610
C1401       C  0.31227076  0.23125987  0.88833308    -0.00020
C1402       C  0.30765506  0.18670552  0.88417091    -0.11900
C1403       C  0.31769811  0.17091433  0.86162966     0.02210
C1404       C  0.33206232  0.20027027  0.84234272    -0.00110
C1405       C  0.33820550  0.24335022  0.84799897    -0.11840
C1406       C  0.32845799  0.25906543  0.87018270     0.02100
H1407       H  0.29600680  0.16424630  0.89844584     0.15080
H1408       H  0.35012738  0.26618069  0.83419681     0.15080
C1409       C  0.33413759  0.30525735  0.87230624     0.36730
C1410       C  0.31276254  0.12508130  0.85860389     0.36640
N1411       N  0.33893621  0.34239990  0.87336154    -0.43610
N1412       N  0.30908821  0.08806561  0.85640127    -0.43610
C1413       C  0.18224573  0.43720987  0.84441348    -0.00020
C1414       C  0.20897616  0.43775655  0.84930970    -0.11900
C1415       C  0.22198564  0.40138546  0.86572284     0.02210
C1416       C  0.20846995  0.36313018  0.87921652    -0.00110
C1417       C  0.18185119  0.36278623  0.87519795    -0.11840
C1418       C  0.16874257  0.39887208  0.85814172     0.02100
H1419       H  0.22013067  0.46622859  0.83926122     0.15080
H1420       H  0.17098635  0.33549016  0.88700011     0.15080
C1421       C  0.14141445  0.39521002  0.85676429     0.36730
C1422       C  0.24936706  0.40535253  0.86970737     0.36640
N1423       N  0.11960603  0.38923233  0.85771833    -0.43610
N1424       N  0.27124430  0.40898934  0.87284810    -0.43610
C1425       C  0.16554040  0.18469649  0.97641275    -0.00020
C1426       C  0.16621159  0.13771365  0.97939578    -0.11900
C1427       C  0.14487346  0.11153073  0.98867868     0.02210
C1428       C  0.12234588  0.13235486  0.99537144    -0.00110
C1429       C  0.12222520  0.17903996  0.99350376    -0.11840
C1430       C  0.14305130  0.20542329  0.98310936     0.02100
H1431       H  0.18383309  0.12129459  0.97589676     0.15080
H1432       H  0.10539720  0.19488928  0.99921625     0.15080
C1433       C  0.14096308  0.25399383  0.97932401     0.36730
C1434       C  0.14706018  0.06307317  0.99258136     0.36640
N1435       N  0.13918002  0.29288092  0.97604099    -0.43610
N1436       N  0.14927011  0.02426414  0.99596222    -0.43610
C1437       C  0.26427401  0.49878707  0.99786966    -0.00020
C1438       C  0.24405527  0.52243881  0.98189666    -0.11900
C1439       C  0.24589714  0.56826980  0.97041630     0.02210
C1440       C  0.26747934  0.59284835  0.97655376    -0.00110
C1441       C  0.28785738  0.56920146  0.99236177    -0.11840
C1442       C  0.28646869  0.52279853  0.00290059     0.02100
H1443       H  0.22709412  0.50427439  0.97696556     0.15080
H1444       H  0.30488357  0.58734437  0.99709500     0.15080
C1445       C  0.30834059  0.50088132  0.01802626     0.36730
C1446       C  0.22593642  0.58827607  0.95140837     0.36640
N1447       N  0.32603969  0.48402619  0.03021739    -0.43610
N1448       N  0.21035212  0.60354753  0.93538010    -0.43610
C1449       C  0.26559633  0.99604090  0.99298498    -0.00020
C1450       C  0.24863775  0.01959395  0.00624429    -0.11900
C1451       C  0.24869977  0.06686985  0.00115699     0.02210
C1452       C  0.26595521  0.09107717  0.98251392    -0.00110
C1453       C  0.28338572  0.06759633  0.96987821    -0.11840
C1454       C  0.28317004  0.02039764  0.97474172     0.02100
H1455       H  0.23473028  0.00112530  0.01975326     0.15080
H1456       H  0.29726988  0.08615345  0.95636690     0.15080
C1457       C  0.30113474  0.99776883  0.96061068     0.36730
C1458       C  0.23082702  0.08981333  0.01525844     0.36640
N1459       N  0.31559984  0.98025984  0.94901355    -0.43610
N1460       N  0.21641706  0.10787217  0.02662731    -0.43610
C1461       C  0.36380344  0.39683800  0.00176827    -0.00020
C1462       C  0.37286674  0.41102573  0.02549045    -0.11900
C1463       C  0.39796388  0.42618454  0.02733698     0.02210
C1464       C  0.41569477  0.41866066  0.00806941    -0.00110
C1465       C  0.40718374  0.40045392  0.98564288    -0.11840
C1466       C  0.38124945  0.39385549  0.98098079     0.02100
H1467       H  0.35963759  0.41549243  0.04103785     0.15080
H1468       H  0.42039780  0.39797186  0.96963412     0.15080
C1469       C  0.37353136  0.39017864  0.95342748     0.36730
C1470       C  0.40241052  0.46012424  0.04352015     0.36640
N1471       N  0.36820398  0.38894996  0.93087088    -0.43610
N1472       N  0.40441963  0.49032462  0.05453970    -0.43610
C1473       C  0.18693499  0.69132681  0.13209631    -0.00020
C1474       C  0.21314544  0.68586631  0.12782197    -0.11900
C1475       C  0.22664746  0.71628534  0.10754276     0.02210
C1476       C  0.21451118  0.75541866  0.09173054    -0.00110
C1477       C  0.18816518  0.75996273  0.09624204    -0.11840
C1478       C  0.17458342  0.72871758  0.11532148     0.02100
H1479       H  0.22334849  0.65825502  0.14079362     0.15080
H1480       H  0.17763690  0.78817905  0.08426814     0.15080
C1481       C  0.14751439  0.73606449  0.11739341     0.36730
C1482       C  0.25259364  0.70480794  0.10329362     0.36640
N1483       N  0.12579902  0.74185892  0.11876172    -0.43610
N1484       N  0.27331015  0.69341336  0.10098116    -0.43610
C1485       C  0.07657499  0.53329574  0.15094376    -0.00020
C1486       C  0.05080985  0.54347154  0.14344230    -0.11900
C1487       C  0.03804220  0.52571638  0.12250245     0.02210
C1488       C  0.05100134  0.49657271  0.10832305    -0.00110
C1489       C  0.07576215  0.48245326  0.11802994    -0.11840
C1490       C  0.08849684  0.50014006  0.13894520     0.02100
H1491       H  0.04082813  0.56745512  0.15298413     0.15080
H1492       H  0.08598745  0.45954589  0.10787725     0.15080
C1493       C  0.11401858  0.48402856  0.14707752     0.36730
C1494       C  0.51245505  0.54155553  0.11523571     0.36640
N1495       N  0.13447659  0.47105793  0.15357341    -0.43610
N1496       N  0.49204555  0.55627143  0.11142110    -0.43610
C1497       C  0.18176676  0.59255502  0.35158096    -0.00020
C1498       C  0.16725731  0.56612028  0.37217227    -0.11900
C1499       C  0.17903991  0.53495972  0.39385041     0.02210
C1500       C  0.20538558  0.52492923  0.39352601    -0.00110
C1501       C  0.21912614  0.54694425  0.37129549    -0.11840
C1502       C  0.20841389  0.58246165  0.35203865     0.02100
H1503       H  0.14691301  0.57070702  0.37215983     0.15080
H1504       H  0.23965138  0.54155408  0.37152747     0.15080
C1505       C  0.22648866  0.61054711  0.33531032     0.36730
C1506       C  0.16431729  0.51700675  0.41747242     0.36640
N1507       N  0.24189965  0.63283249  0.32316690    -0.43610
N1508       N  0.15257522  0.50324442  0.43655800    -0.43610
C1509       C  0.08079409  0.59333104  0.36065643    -0.00020
C1510       C  0.09828661  0.61506497  0.37575312    -0.11900
C1511       C  0.09099204  0.63737930  0.39640937     0.02210
C1512       C  0.06498598  0.63846668  0.40344936    -0.00110
C1513       C  0.04751186  0.61269624  0.39023131    -0.11840
C1514       C  0.05512975  0.59079042  0.36887840     0.02100
H1515       H  0.11754018  0.62052150  0.36875858     0.15080
H1516       H  0.02755916  0.61155835  0.39549143     0.15080
C1517       C  0.03612851  0.56779229  0.35493599     0.36730
C1518       C  0.11102757  0.66168942  0.40800970     0.36640
N1519       N  0.52071616  0.54910179  0.34414960    -0.43610
N1520       N  0.12772174  0.68103761  0.41635634    -0.43610
C1521       C  0.23019573  0.25102042  0.10257921    -0.00020
C1522       C  0.23575956  0.26168406  0.12805065    -0.11900
C1523       C  0.22447179  0.23746035  0.15173108     0.02210
C1524       C  0.21144064  0.19529224  0.15164485    -0.00110
C1525       C  0.20677316  0.18373193  0.12618872    -0.11840
C1526       C  0.21360894  0.21295362  0.10198441     0.02100
H1527       H  0.24601906  0.29282641  0.12890077     0.15080
H1528       H  0.19521511  0.15413843  0.12493009     0.15080
C1529       C  0.20059404  0.20412796  0.07761704     0.36730
C1530       C  0.22217770  0.26329952  0.17297562     0.36640
N1531       N  0.18962520  0.19466869  0.05896859    -0.43610
N1532       N  0.22023994  0.28850315  0.18758228    -0.43610
C1533       C  0.07926399  0.01427036  0.10073580    -0.00020
C1534       C  0.10603638  0.02106676  0.10133143    -0.11900
C1535       C  0.11859039  0.04015022  0.12214238     0.02210
C1536       C  0.10450086  0.05156130  0.14364698    -0.00110
C1537       C  0.07835088  0.04249579  0.14385403    -0.11840
C1538       C  0.06567919  0.02617457  0.12259228     0.02100
H1539       H  0.11681560  0.01587949  0.08397900     0.15080
H1540       H  0.06719440  0.05107817  0.16012834     0.15080
C1541       C  0.03839160  0.02994475  0.12275371     0.36730
C1542       C  0.14526158  0.05212443  0.11934633     0.36640
N1543       N  0.01710179  0.03666523  0.12586118    -0.43610
N1544       N  0.16655671  0.06236284  0.11707357    -0.43610
C1545       C  0.13169278  0.82578149  0.25520878    -0.00020
C1546       C  0.14773792  0.84528021  0.27291277    -0.11900
C1547       C  0.15104261  0.89259657  0.26905119     0.02210
C1548       C  0.13827749  0.92176353  0.24709339    -0.00110
C1549       C  0.12180306  0.90234168  0.22976948    -0.11840
C1550       C  0.11855955  0.85512188  0.23351167     0.02100
H1551       H  0.15848686  0.82350298  0.28914879     0.15080
H1552       H  0.11107878  0.92416508  0.21352484     0.15080
C1553       C  0.10107986  0.83744945  0.21507509     0.36730
C1554       C  0.16826431  0.91057942  0.28751235     0.36640
N1555       N  0.08684846  0.82316780  0.20059033    -0.43610
N1556       N  0.18219347  0.92496902  0.30222108    -0.43610
C1557       C  0.14336903  0.33184289  0.25885628    -0.00020
C1558       C  0.11996658  0.34750790  0.26613814    -0.11900
C1559       C  0.11342446  0.39300166  0.25860945     0.02210
C1560       C  0.13089597  0.42371183  0.24382181    -0.00110
C1561       C  0.15525132  0.40826131  0.23900175    -0.11840
C1562       C  0.16166945  0.36296244  0.24647743     0.02100
H1563       H  0.10586542  0.32362932  0.27579632     0.15080
H1564       H  0.16954539  0.43160299  0.22924821     0.15080
C1565       C  0.18723548  0.34994090  0.24117413     0.36730
C1566       C  0.08814301  0.40576009  0.26507404     0.36640
N1567       N  0.20801053  0.34133667  0.23679235    -0.43610
N1568       N  0.06768482  0.41468510  0.27038203    -0.43610
C1569       C  0.17813499  0.10098835  0.35516423    -0.00020
C1570       C  0.20061453  0.07869057  0.35002263    -0.11900
C1571       C  0.20956596  0.03923540  0.36703569     0.02210
C1572       C  0.19897056  0.02516695  0.39253331    -0.00110
C1573       C  0.17626173  0.04641936  0.39809123    -0.11840
C1574       C  0.16610877  0.08445579  0.37995106     0.02100
H1575       H  0.21145709  0.09156158  0.33223132     0.15080
H1576       H  0.16887182  0.03783473  0.41852429     0.15080
C1577       C  0.14761406  0.11125054  0.39031063     0.36730
C1578       C  0.23195665  0.01674891  0.35984094     0.36640
N1579       N  0.13396811  0.13282450  0.40028333    -0.43610
N1580       N  0.24965127  0.99757698  0.35467753    -0.43610
C1581       C  0.08261791  0.12922870  0.35345036    -0.00020
C1582       C  0.06215122  0.10664933  0.36780864    -0.11900
C1583       C  0.05102652  0.12362412  0.38946080     0.02210
C1584       C  0.06178419  0.16191008  0.39869105    -0.00110
C1585       C  0.08240789  0.18333801  0.38462479    -0.11840
C1586       C  0.09181136  0.16937382  0.36179874     0.02100
H1587       H  0.05339510  0.07821625  0.36060841     0.15080
H1588       H  0.09038148  0.21366528  0.39034835     0.15080
C1589       C  0.10989967  0.20006051  0.34670653     0.36730
C1590       C  0.02733771  0.10356307  0.39969855     0.36640
N1591       N  0.12397016  0.22639570  0.33539847    -0.43610
N1592       N  0.00785930  0.08790134  0.40676404    -0.43610
C1593       C  0.34664202  0.80319870  0.13889018    -0.00020
C1594       C  0.31993663  0.80285023  0.13819845    -0.11900
C1595       C  0.30600689  0.78819669  0.11733842     0.02210
C1596       C  0.31866694  0.77088254  0.09680802    -0.00110
C1597       C  0.34538259  0.76704932  0.09881872    -0.11840
C1598       C  0.35950288  0.78350526  0.11940200     0.02100
H1599       H  0.30963542  0.81656992  0.15330217     0.15080
H1600       H  0.35538810  0.75555307  0.08270339     0.15080
C1601       C  0.38703521  0.78297768  0.11848191     0.36730
C1602       C  0.27893589  0.79722287  0.11632664     0.36640
N1603       N  0.40910899  0.78271373  0.11766408    -0.43610
N1604       N  0.25761728  0.80654789  0.11714087    -0.43610
C1605       C  0.47607160  0.00990816  0.09296948    -0.00020
C1606       C  0.48786670  0.96748553  0.10272164    -0.11900
C1607       C  0.47567230  0.93294273  0.12149882     0.02210
C1608       C  0.45059113  0.93907165  0.12982095    -0.00110
C1609       C  0.43822217  0.97993059  0.11810194    -0.11840
C1610       C  0.45071186  0.01526428  0.10099514     0.02100
H1611       H  0.00728918  0.96159272  0.09587407     0.15080
H1612       H  0.41920091  0.98608546  0.12463856     0.15080
C1613       C  0.43719700  0.05764172  0.09306036     0.36730
C1614       C  0.48943038  0.89201050  0.13246842     0.36640
N1615       N  0.42642638  0.09159685  0.08677725    -0.43610
N1616       N  0.00127492  0.85900946  0.14095868    -0.43610
C1617       C  0.48676473  0.75269337  0.23506872    -0.00020
C1618       C  0.00991211  0.77772071  0.23748137    -0.11900
C1619       C  0.03095687  0.75836394  0.25291424     0.02210
C1620       C  0.03136031  0.71188378  0.26294313    -0.00110
C1621       C  0.50856450  0.68660026  0.26071313    -0.11840
C1622       C  0.48615695  0.70696403  0.24820144     0.02100
H1623       H  0.00990865  0.81392845  0.22983334     0.15080
H1624       H  0.50891542  0.65046717  0.26846616     0.15080
C1625       C  0.46262810  0.68134888  0.25086007     0.36730
C1626       C  0.05159554  0.78689542  0.25928875     0.36640
N1627       N  0.44391386  0.66053685  0.25370743    -0.43610
N1628       N  0.06769595  0.80978771  0.26546208    -0.43610
C1629       C  0.24790157  0.03211821  0.24351107    -0.00020
C1630       C  0.25324138  0.00778705  0.22321013    -0.11900
C1631       C  0.27658896  0.98557767  0.22319589     0.02210
C1632       C  0.29592039  0.98775223  0.24390177    -0.00110
C1633       C  0.29018652  0.01041338  0.26488518    -0.11840
C1634       C  0.26661253  0.03218886  0.26503065     0.02100
H1635       H  0.23910493  0.00622463  0.20699279     0.15080
H1636       H  0.30429434  0.01162139  0.28117684     0.15080
C1637       C  0.26256846  0.05351044  0.28805498     0.36730
C1638       C  0.27930715  0.96035711  0.20155161     0.36640
N1639       N  0.26007781  0.07037255  0.30676872    -0.43610
N1640       N  0.28078805  0.94063932  0.18390124    -0.43610
C1641       C  0.32598260  0.87836498  0.34327458    -0.00020
C1642       C  0.32000785  0.92477127  0.34065450    -0.11900
C1643       C  0.31433330  0.94397388  0.36309275     0.02210
C1644       C  0.31110919  0.91633066  0.38879285    -0.00110
C1645       C  0.31341405  0.86893925  0.39096932    -0.11840
C1646       C  0.32145862  0.84995050  0.36860134     0.02100
H1647       H  0.32259457  0.94743447  0.32122522     0.15080
H1648       H  0.31012221  0.84698933  0.41044775     0.15080
C1649       C  0.32537796  0.80194283  0.37214782     0.36730
C1650       C  0.31302724  0.99262560  0.35929108     0.36640
N1651       N  0.32819880  0.76332947  0.37480117    -0.43610
N1652       N  0.31240618  0.03160005  0.35626348    -0.43610
C1653       C  0.43875901  0.84825729  0.34849081    -0.00020
C1654       C  0.42284965  0.82864557  0.36978988    -0.11900
C1655       C  0.43224370  0.79489791  0.39154050     0.02210
C1656       C  0.45706107  0.77645577  0.39096694    -0.00110
C1657       C  0.47167637  0.79248358  0.36830313    -0.11840
C1658       C  0.46407000  0.83031768  0.34893597     0.02100
H1659       H  0.40357589  0.84131145  0.37029331     0.15080
H1660       H  0.49121893  0.78050560  0.36827789     0.15080
C1661       C  0.48388385  0.85042408  0.33099627     0.36730
C1662       C  0.41715321  0.78294372  0.41556284     0.36640
N1663       N  0.50071144  0.86537146  0.31767313    -0.43610
N1664       N  0.40513659  0.77394145  0.43493300    -0.43610
C1665       C  0.34083719  0.28469371  0.15092723    -0.00020
C1666       C  0.35806492  0.28402569  0.12998964    -0.11900
C1667       C  0.35004718  0.27103577  0.10561374     0.02210
C1668       C  0.32471858  0.25615138  0.10246847    -0.00110
C1669       C  0.30833121  0.25228583  0.12442121    -0.11840
C1670       C  0.31587878  0.26744872  0.14828310     0.02100
H1671       H  0.37725443  0.29730902  0.13168283     0.15080
H1672       H  0.28865329  0.24202205  0.12172886     0.15080
C1673       C  0.29711604  0.26685540  0.16887736     0.36730
C1674       C  0.36723225  0.27834286  0.08308782     0.36640
N1675       N  0.28164367  0.26621836  0.18497460    -0.43610
N1676       N  0.38116154  0.28477484  0.06519468    -0.43610
C1677       C  0.45438723  0.48502722  0.09757598    -0.00020
C1678       C  0.43026059  0.49792084  0.10434381    -0.11900
C1679       C  0.41527186  0.46742400  0.12198751     0.02210
C1680       C  0.42599304  0.42655441  0.13684775    -0.00110
C1681       C  0.45027765  0.41427255  0.13113012    -0.11840
C1682       C  0.46412776  0.44184115  0.11114310     0.02100
H1683       H  0.42195041  0.52931412  0.09343235     0.15080
H1684       H  0.45867288  0.38335884  0.14269639     0.15080
C1685       C  0.48722698  0.42177490  0.10389277     0.36730
C1686       C  0.38855595  0.47775194  0.12418760     0.36640
N1687       N  0.00504143  0.40247714  0.09886149    -0.43610
N1688       N  0.36705503  0.48525342  0.12576445    -0.43610
C1689       C  0.48673164  0.27648520  0.24318743    -0.00020
C1690       C  0.00908311  0.30331340  0.24001168    -0.11900
C1691       C  0.03402857  0.28457214  0.24121418     0.02210
C1692       C  0.03772522  0.23725304  0.24751940    -0.00110
C1693       C  0.01560074  0.21001838  0.25040054    -0.11840
C1694       C  0.49043095  0.22914320  0.24819171     0.02100
H1695       H  0.50671590  0.34019315  0.23554799     0.15080
H1696       H  0.01781134  0.17362283  0.25408059     0.15080
C1697       C  0.46908066  0.19851384  0.25041505     0.36730
C1698       C  0.05520683  0.31438647  0.23314530     0.36640
N1699       N  0.45243748  0.17288100  0.25171303    -0.43610
N1700       N  0.07196355  0.33829345  0.22566264    -0.43610
C1701       C  0.36933194  0.58170357  0.24134415    -0.00020
C1702       C  0.38801524  0.60373364  0.22376545    -0.11900
C1703       C  0.39016822  0.65090947  0.21782647     0.02210
C1704       C  0.37369273  0.67736019  0.23014410    -0.00110
C1705       C  0.35354560  0.65520928  0.24580127    -0.11840
C1706       C  0.35119772  0.60799280  0.25129295     0.02100
H1707       H  0.40131216  0.58385337  0.21478374     0.15080
H1708       H  0.33974173  0.67477560  0.25435930     0.15080
C1709       C  0.32943340  0.58750625  0.26595823     0.36730
C1710       C  0.40989970  0.67071798  0.19969798     0.36640
N1711       N  0.31180305  0.57112385  0.27737063    -0.43610
N1712       N  0.42570975  0.68649877  0.18513890    -0.43610
C1713       C  0.39147789  0.07702650  0.25254263    -0.00020
C1714       C  0.40288540  0.09592553  0.27356733    -0.11900
C1715       C  0.39954127  0.14162077  0.27402789     0.02210
C1716       C  0.38530152  0.16887349  0.25269145    -0.00110
C1717       C  0.37281911  0.14950611  0.23249074    -0.11840
C1718       C  0.37527378  0.10346554  0.23269145     0.02100
H1719       H  0.41472468  0.07519048  0.28929935     0.15080
H1720       H  0.36081878  0.17022873  0.21689936     0.15080
C1721       C  0.35977279  0.08344210  0.21359012     0.36730
C1722       C  0.41195709  0.16036994  0.29568659     0.36640
N1723       N  0.34705246  0.06702947  0.19872725    -0.43610
N1724       N  0.42206439  0.17564627  0.31282927    -0.43610
C1725       C  0.27603783  0.48721760  0.24139526    -0.00020
C1726       C  0.26880449  0.50410576  0.21378696    -0.11900
C1727       C  0.24465672  0.52310753  0.20617098     0.02210
C1728       C  0.22689411  0.52600301  0.22629415    -0.00110
C1729       C  0.23443202  0.51135350  0.25397608    -0.11840
C1730       C  0.25870537  0.49225894  0.26169438     0.02100
H1731       H  0.28197211  0.50136179  0.19782724     0.15080
H1732       H  0.22101849  0.51362012  0.26965663     0.15080
C1733       C  0.26475239  0.47671657  0.29036889     0.36730
C1734       C  0.23877950  0.54015376  0.17758098     0.36640
N1735       N  0.26935629  0.46489224  0.31348140    -0.43610
N1736       N  0.23402041  0.55403019  0.15469680    -0.43610
C1737       C  0.32174879  0.35789330  0.35864481    -0.00020
C1738       C  0.34052605  0.36609619  0.37772439    -0.11900
C1739       C  0.33482571  0.38952585  0.39845446     0.02210
C1740       C  0.30935587  0.40345344  0.40128880    -0.00110
C1741       C  0.29013061  0.39125444  0.38360953    -0.11840
C1742       C  0.29617957  0.36925473  0.36225582     0.02100
H1743       H  0.36025917  0.35773771  0.37495896     0.15080
H1744       H  0.27043279  0.40058749  0.38572278     0.15080
C1745       C  0.27609238  0.36085187  0.34328821     0.36730
C1746       C  0.35560773  0.39706863  0.41681353     0.36640
N1747       N  0.25994108  0.35416091  0.32812911    -0.43610
N1748       N  0.37282922  0.40192408  0.43113074    -0.43610
C1749       C  0.41334773  0.36304903  0.35890023    -0.00020
C1750       C  0.42899872  0.38545709  0.37475241    -0.11900
C1751       C  0.44788490  0.36285169  0.39231400     0.02210
C1752       C  0.45000702  0.31423608  0.39751223    -0.00110
C1753       C  0.43329619  0.29109449  0.38248733    -0.11840
C1754       C  0.41582435  0.31515445  0.36263992     0.02100
H1755       H  0.42839067  0.42214666  0.37102597     0.15080
H1756       H  0.43447269  0.25462020  0.38544738     0.15080
C1757       C  0.40371916  0.29027475  0.34395492     0.36730
C1758       C  0.46546381  0.39286881  0.40303891     0.36640
N1759       N  0.39571707  0.26907045  0.32861407    -0.43610
N1760       N  0.47847671  0.41926247  0.41079259    -0.43610
O1761       O  0.84136307  0.32162122  0.32507517    -0.75160
O1762       O  0.82974618  0.39594824  0.31544773    -0.54070
C1763       C  0.83060670  0.35708940  0.33100401     0.78570
O1764       O  0.95812263  0.32098009  0.26263130    -0.59760
O1765       O  0.94285650  0.29356055  0.22575842    -0.52790
C1766       C  0.96084286  0.29783695  0.24372718     0.70580
O1767       O  0.92086304  0.40329181  0.31589519    -0.74320
O1768       O  0.87971994  0.39891625  0.32649441    -0.54880
C1769       C  0.90360712  0.39051269  0.33289603     0.76590
O1770       O  0.87177394  0.22922754  0.27122134    -0.59460
O1771       O  0.89210224  0.24316679  0.23040952    -0.52580
C1772       C  0.88277001  0.21684771  0.25121267     0.73180
Zr1773     Zr  0.85686534  0.29890698  0.28256625     2.54710
O1774       O  0.85106814  0.23301280  0.31888380    -0.80030
O1775       O  0.81357251  0.27771246  0.27067051    -0.93450
Zr1776     Zr  0.92516830  0.36756265  0.27766138     2.64680
O1777       O  0.95510631  0.32655558  0.31205414    -0.98400
O1778       O  0.95892864  0.42321057  0.26646382    -0.80460
O1779       O  0.88240730  0.35684425  0.29389681    -0.83820
O1780       O  0.90049587  0.30667428  0.26685592    -2.18530
O1781       O  0.83293377  0.33014945  0.18352935    -0.67210
O1782       O  0.87275627  0.30028765  0.18207104    -0.51770
C1783       C  0.84923959  0.30590058  0.17391677     0.71560
O1784       O  0.87065117  0.51441401  0.22449411    -0.60120
O1785       O  0.86605189  0.50674671  0.27011094    -0.52090
C1786       C  0.86841355  0.53114549  0.24595189     0.73360
O1787       O  0.91067235  0.43903750  0.17613260    -0.71510
O1788       O  0.91565008  0.36477329  0.17413954    -0.50190
C1789       C  0.91664172  0.40764706  0.16391531     0.74750
O1790       O  0.80297401  0.43389315  0.22858066    -0.66840
O1791       O  0.81536550  0.45981748  0.26716249    -0.54040
C1792       C  0.79971470  0.45847473  0.24653438     0.73130
Zr1793     Zr  0.83212152  0.37936559  0.21724070     2.77540
O1794       O  0.81750499  0.42731253  0.17457708    -0.97590
O1795       O  0.79084650  0.34167924  0.22321532    -0.78410
Zr1796     Zr  0.89578318  0.45150549  0.21756318     2.70070
O1797       O  0.89638770  0.51621347  0.17996308    -0.79660
O1798       O  0.93561939  0.48851303  0.22717745    -0.98740
Zr1799     Zr  0.85804840  0.42466972  0.28032695     2.21500
Zr1800     Zr  0.89830239  0.32413136  0.21783072     2.11130
O1801       O  0.87388280  0.39143596  0.20147023    -2.47430
O1802       O  0.85369864  0.44006630  0.23200627    -0.79450
O1803       O  0.85545105  0.31272812  0.23420272    -0.71650
O1804       O  0.90127407  0.43633287  0.26524794    -2.32600
O1805       O  0.83380635  0.36554350  0.26547536    -2.28810
O1806       O  0.92151907  0.38583024  0.23000974    -0.73410
H1807       H  0.91013161  0.27933686  0.27332128     0.78590
H1808       H  0.90946417  0.46116656  0.27185310     0.79680
H1809       H  0.87153694  0.39711412  0.18184316     0.81900
H1810       H  0.81672605  0.36386224  0.27238578     0.79510
H1811       H  0.96756501  0.42461707  0.28425436     0.42550
H1812       H  0.94649613  0.48606465  0.21164782     0.41520
H1813       H  0.87850217  0.51958698  0.17276949     0.41190
H1814       H  0.82896087  0.42036987  0.16052663     0.39130
H1815       H  0.79464340  0.30961372  0.22334399     0.42260
H1816       H  0.80350430  0.27964975  0.28687851     0.37040
H1817       H  0.83252208  0.23177658  0.32227608     0.43160
H1818       H  0.94776933  0.29613160  0.31807327     0.39580
H1819       H  0.80076998  0.41437661  0.17023778     0.44490
H1820       H  0.81456382  0.24500102  0.27054129     0.43220
H1821       H  0.95500003  0.34131830  0.32812228     0.43350
H1822       H  0.93134857  0.52097400  0.22449147     0.43710
O1823       O  0.90318876  0.01960787  0.22883269    -0.75160
O1824       O  0.89196110  0.00044839  0.27332728    -0.54070
C1825       C  0.89623910  0.02927653  0.25160174     0.78570
O1826       O  0.84747029  0.85034787  0.17113502    -0.59760
O1827       O  0.88417358  0.81358588  0.16610293    -0.52790
C1828       C  0.86082230  0.82375067  0.15963451     0.70580
O1829       O  0.82410716  0.94955319  0.22209748    -0.74320
O1830       O  0.83636751  0.95813512  0.26511509    -0.54880
C1831       C  0.82028478  0.96354218  0.24417525     0.76590
O1832       O  0.93984637  0.94461326  0.17263864    -0.59460
O1833       O  0.93240227  0.87450625  0.16286759    -0.52580
C1834       C  0.94113719  0.91601357  0.15697560     0.73180
Zr1835     Zr  0.91775388  0.95351146  0.21176633     2.54710
O1836       O  0.91012292  0.01713050  0.17432938    -0.80030
O1837       O  0.95984384  0.98315271  0.22135151    -0.93450
Zr1838     Zr  0.85025692  0.89577534  0.20714218     2.64680
O1839       O  0.83617125  0.95004958  0.16678833    -0.98400
O1840       O  0.80930613  0.85650517  0.21142960    -0.80460
O1841       O  0.87577728  0.94777122  0.22664760    -0.83820
O1842       O  0.89184592  0.90303969  0.19069828    -2.18530
O1843       O  0.96282006  0.79985823  0.25315552    -0.67210
O1844       O  0.94894067  0.78487383  0.21209250    -0.51770
C1845       C  0.96448796  0.78012009  0.23297880     0.71560
O1846       O  0.84296884  0.83215833  0.31016182    -0.60120
O1847       O  0.85822634  0.90139768  0.31451078    -0.52090
C1848       C  0.84343308  0.86804991  0.32155589     0.73360
O1849       O  0.86887100  0.73960954  0.25049183    -0.71510
O1850       O  0.89368672  0.74990407  0.21279550    -0.50190
C1851       C  0.87916113  0.72559878  0.23061285     0.74750
O1852       O  0.94342446  0.89478030  0.30510944    -0.66840
O1853       O  0.90404834  0.89160002  0.31975408    -0.54040
C1854       C  0.92826535  0.88262387  0.32421821     0.73130
Zr1855     Zr  0.93836750  0.85362889  0.26936773     2.77540
O1856       O  0.94652559  0.78875724  0.30612343    -0.97590
O1857       O  0.98249269  0.87912418  0.26442715    -0.78410
Zr1858     Zr  0.86712865  0.80463148  0.27190054     2.70070
O1859       O  0.88137038  0.74662286  0.31025379    -0.79660
O1860       O  0.82395218  0.77391637  0.27145382    -0.98740
Zr1861     Zr  0.88005971  0.92374630  0.27496689     2.21500
Zr1862     Zr  0.90959244  0.82902028  0.20394958     2.11130
O1863       O  0.90910327  0.80509721  0.25274770    -2.47430
O1864       O  0.89723306  0.85066962  0.28836202    -0.79450
O1865       O  0.93674387  0.88043863  0.22195040    -0.71650
O1866       O  0.85070151  0.87638608  0.25578340    -2.32600
O1867       O  0.92239336  0.92881986  0.25897592    -2.28810
O1868       O  0.86766780  0.82462298  0.22280364    -0.73410
H1869       H  0.89076244  0.91273070  0.17107846     0.78590
H1870       H  0.83365310  0.87725839  0.26246291     0.79680
H1871       H  0.91565225  0.77468306  0.25744440     0.81900
H1872       H  0.93263542  0.95041637  0.26661634     0.79510
H1873       H  0.80261076  0.86110905  0.22902990     0.42550
H1874       H  0.82022143  0.77168766  0.25215247     0.41520
H1875       H  0.88600991  0.76338812  0.32496514     0.41190
H1876       H  0.93588458  0.76386547  0.30149495     0.39130
H1877       H  0.98499220  0.88620408  0.24446190     0.42260
H1878       H  0.95650179  0.00706948  0.23189010     0.37040
H1879       H  0.89165371  0.01532581  0.16966333     0.43160
H1880       H  0.84558511  0.94182430  0.15155037     0.39580
H1881       H  0.96435194  0.77928688  0.30426879     0.44490
H1882       H  0.96546064  0.99976134  0.20342456     0.43220
H1883       H  0.84391030  0.97902712  0.16941295     0.43350
H1884       H  0.82561836  0.74222927  0.28125053     0.43710
O1885       O  0.65475865  0.27405555  0.23762968    -0.75160
O1886       O  0.63507339  0.25609248  0.27850327    -0.54070
C1887       C  0.64504407  0.28425102  0.25898652     0.78570
O1888       O  0.60031906  0.10016365  0.17648951    -0.59760
O1889       O  0.63834171  0.06440428  0.17484587    -0.52790
C1890       C  0.61525716  0.07404758  0.16619852     0.70580
O1891       O  0.56619028  0.19333429  0.22798631    -0.74320
O1892       O  0.58043446  0.21683930  0.26690098    -0.54880
C1893       C  0.56326989  0.21518783  0.24753789     0.76590
O1894       O  0.70159277  0.18430059  0.19831313    -0.59460
O1895       O  0.68593416  0.13123455  0.17654462    -0.52580
C1896       C  0.69907789  0.16830211  0.17674005     0.73180
Zr1897     Zr  0.66578078  0.20733425  0.22029713     2.54710
O1898       O  0.65903495  0.25933791  0.17692570    -0.80030
O1899       O  0.70454220  0.24376146  0.23427532    -0.93450
Zr1900     Zr  0.59888818  0.14708428  0.21221131     2.64680
O1901       O  0.59099548  0.20667186  0.17244884    -0.98400
O1902       O  0.55699585  0.11325880  0.20740484    -0.80460
O1903       O  0.62238913  0.20127332  0.23196654    -0.83820
O1904       O  0.64200960  0.15442084  0.19894735    -2.18530
O1905       O  0.72104589  0.08718802  0.25723912    -0.67210
O1906       O  0.70403408  0.04772824  0.22660305    -0.51770
C1907       C  0.72265356  0.05738541  0.24232554     0.71560
O1908       O  0.59930907  0.08284276  0.32156372    -0.60120
O1909       O  0.58802869  0.15586219  0.30794622    -0.52090
C1910       C  0.58956718  0.12057929  0.32615123     0.73360
O1911       O  0.62596064  0.98634374  0.26389971    -0.71510
O1912       O  0.65119628  0.99865913  0.22622929    -0.50190
C1913       C  0.63848743  0.97259106  0.24521803     0.74750
O1914       O  0.68405253  0.15546029  0.31551935    -0.66840
O1915       O  0.64398625  0.14578793  0.32694881    -0.54040
C1916       C  0.66814960  0.13966012  0.33322419     0.73130
Zr1917     Zr  0.68589123  0.11188500  0.28040587     2.77540
O1918       O  0.69590278  0.03694182  0.30757101    -0.97590
O1919       O  0.72586538  0.14594322  0.29293862    -0.78410
Zr1920     Zr  0.61612306  0.05641348  0.27902583     2.70070
O1921       O  0.62339053  0.99485455  0.31782163    -0.79660
O1922       O  0.57225554  0.03172843  0.27311323    -0.98740
Zr1923     Zr  0.62266119  0.17857367  0.28036025     2.21500
Zr1924     Zr  0.66138973  0.08153211  0.21452166     2.11130
O1925       O  0.65937086  0.05965648  0.26314677    -2.47430
O1926       O  0.64286336  0.10732991  0.29576476    -0.79450
O1927       O  0.68555706  0.13586022  0.23310808    -0.71650
O1928       O  0.59728992  0.12630951  0.26055355    -2.32600
O1929       O  0.66604013  0.18407350  0.26752621    -2.28810
O1930       O  0.61798055  0.07640958  0.22997682    -0.73410
H1931       H  0.64234854  0.16324301  0.17928902     0.78590
H1932       H  0.57971530  0.12555109  0.26593528     0.79680
H1933       H  0.66694808  0.03014927  0.26815235     0.81900
H1934       H  0.67469916  0.20659086  0.27580789     0.79510
H1935       H  0.55113469  0.10406557  0.22634431     0.42550
H1936       H  0.57133030  0.02521670  0.25437538     0.41520
H1937       H  0.63457660  0.00800348  0.33069296     0.41190
H1938       H  0.70327180  0.01880765  0.29515996     0.39130
H1939       H  0.73243001  0.16294166  0.27556453     0.42260
H1940       H  0.71751326  0.21956264  0.23863075     0.37040
H1941       H  0.64241016  0.27379804  0.17868112     0.43160
H1942       H  0.60063221  0.19743078  0.15767166     0.39580
H1943       H  0.67939701  0.02238763  0.31314992     0.44490
H1944       H  0.70162588  0.25262616  0.25200408     0.43220
H1945       H  0.57281500  0.20278032  0.16721929     0.43350
H1946       H  0.57133917  0.00170052  0.28522726     0.43710
O1947       O  0.66981921  0.69818700  0.17333539    -0.75160
O1948       O  0.66845973  0.62660424  0.16467162    -0.54070
C1949       C  0.67459936  0.66948835  0.15841727     0.78570
O1950       O  0.68276556  0.64206647  0.30811701    -0.59760
O1951       O  0.64456272  0.63395281  0.32579332    -0.52790
C1952       C  0.66906442  0.62676007  0.32825109     0.70580
O1953       O  0.69006119  0.56665869  0.23501035    -0.74320
O1954       O  0.68729896  0.54085960  0.19856112    -0.54880
C1955       C  0.70092743  0.54517055  0.21943722     0.76590
O1956       O  0.63947330  0.76599932  0.23322564    -0.59460
O1957       O  0.62635252  0.74702385  0.27711188    -0.52580
C1958       C  0.63242490  0.77642124  0.25561067     0.73180
Zr1959     Zr  0.64909122  0.69949229  0.21502922     2.54710
O1960       O  0.69031605  0.73654840  0.21761229    -0.80030
O1961       O  0.62904968  0.76008777  0.18201157    -0.93450
Zr1962     Zr  0.67945025  0.60241405  0.27121187     2.64680
O1963       O  0.72457137  0.62032623  0.26582770    -0.98400
O1964       O  0.69413337  0.53728543  0.30479115    -0.80460
O1965       O  0.67230615  0.63086752  0.22374232    -0.83820
O1966       O  0.65871934  0.67483170  0.26221114    -2.18530
O1967       O  0.55591873  0.66987566  0.24096797    -0.67210
O1968       O  0.57398476  0.69353001  0.27828653    -0.51770
C1969       C  0.55520256  0.68960577  0.26139079     0.71560
O1970       O  0.60715478  0.49066911  0.24542933    -0.60120
O1971       O  0.64148384  0.49628390  0.21884234    -0.52090
C1972       C  0.62575208  0.47296840  0.23524803     0.73360
O1973       O  0.59464285  0.55897373  0.32208634    -0.71510
O1974       O  0.59133292  0.63531170  0.31910221    -0.50190
C1975       C  0.58832356  0.59475945  0.33172044     0.74750
O1976       O  0.57679197  0.58052059  0.18460947    -0.66840
O1977       O  0.61499117  0.55708814  0.17217024    -0.54040
C1978       C  0.59037911  0.55842148  0.17050509     0.73130
Zr1979     Zr  0.58434880  0.63155281  0.21700847     2.77540
O1980       O  0.54203963  0.59665859  0.21828199    -0.97590
O1981       O  0.57025918  0.69021719  0.17893597    -0.78410
Zr1982     Zr  0.61149012  0.54143296  0.27752624     2.70070
O1983       O  0.56995768  0.50558251  0.28628069    -0.79660
O1984       O  0.63119622  0.47600694  0.30686875    -0.98740
Zr1985     Zr  0.64660954  0.57709297  0.20493183     2.21500
Zr1986     Zr  0.61791430  0.66437151  0.28260393     2.11130
O1987       O  0.59070443  0.61064189  0.26534432    -2.47430
O1988       O  0.60684849  0.56419028  0.22861969    -0.79450
O1989       O  0.60894162  0.68691771  0.23473100    -0.71650
O1990       O  0.65196364  0.54982188  0.25510645    -2.32600
O1991       O  0.62383017  0.64678242  0.19501197    -2.28810
O1992       O  0.63923227  0.59335630  0.29258558    -0.73410
H1993       H  0.66866682  0.69775286  0.26894100     0.78590
H1994       H  0.65988446  0.52035746  0.25981769     0.79680
H1995       H  0.57451962  0.60690071  0.27425783     0.81900
H1996       H  0.62105313  0.65695203  0.17555791     0.79510
H1997       H  0.67827378  0.52205344  0.31198740     0.42550
H1998       H  0.63184330  0.48372297  0.32531225     0.41520
H1999       H  0.55951112  0.51687020  0.26947427     0.41190
H2000       H  0.53803530  0.58874754  0.23789595     0.39130
H2001       H  0.56493807  0.71548039  0.18757313     0.42260
H2002       H  0.61673400  0.74472047  0.17137104     0.37040
H2003       H  0.70232925  0.71172387  0.22510285     0.43160
H2004       H  0.72693732  0.64930583  0.27210472     0.39580
H2005       H  0.53007149  0.62139904  0.21049143     0.44490
H2006       H  0.64253603  0.77201798  0.16910692     0.43220
H2007       H  0.73369990  0.59737948  0.27956382     0.43350
H2008       H  0.61806186  0.45199280  0.30792924     0.43710
O2009       O  0.71953494  0.29368002  0.05955146    -0.75160
O2010       O  0.76060987  0.29793489  0.07155094    -0.54070
C2011       C  0.73736734  0.28391926  0.07704158     0.78570
O2012       O  0.78319864  0.15165942  0.99896364    -0.59760
O2013       O  0.75562367  0.16680390  0.96159457    -0.52790
C2014       C  0.76883766  0.13984709  0.98017485     0.70580
O2015       O  0.80816856  0.23076811  0.06246592    -0.74320
O2016       O  0.80546725  0.30443415  0.06676021    -0.54880
C2017       C  0.81230560  0.26363489  0.07523827     0.76590
O2018       O  0.69339061  0.22465591  0.99863301    -0.59460
O2019       O  0.70573167  0.21261753  0.95718152    -0.52580
C2020       C  0.68983074  0.20898375  0.97683636     0.73180
Zr2021     Zr  0.72384419  0.26813656  0.01853232     2.54710
O2022       O  0.74531629  0.20939390  0.05198409    -0.80030
O2023       O  0.68079778  0.28957083  0.02875724    -0.93450
Zr2024     Zr  0.79212720  0.21914585  0.01691082     2.64680
O2025       O  0.78771880  0.16091772  0.05795543    -0.98400
O2026       O  0.83438239  0.19739609  0.00515176    -0.80460
O2027       O  0.76589097  0.28413015  0.00582073    -0.83820
O2028       O  0.74847398  0.21729803  0.00079989    -2.18530
O2029       O  0.72183783  0.36591962  0.92223631    -0.67210
O2030       O  0.72636013  0.29655945  0.91090432    -0.51770
C2031       C  0.71931638  0.33885609  0.90572798     0.71560
O2032       O  0.82718886  0.38267344  0.97590717    -0.60120
O2033       O  0.82412568  0.37212830  0.02163337    -0.52090
C2034       C  0.83671327  0.38372120  0.99964746     0.73360
O2035       O  0.81312279  0.27514485  0.92362981    -0.71510
O2036       O  0.77683353  0.23544778  0.91695208    -0.50190
C2037       C  0.79992479  0.24828325  0.91113171     0.74750
O2038       O  0.75268728  0.43559611  0.98118077    -0.66840
O2039       O  0.77372911  0.42209452  0.02240192    -0.54040
C2040       C  0.76357580  0.44885960  0.00143228     0.73130
Zr2041     Zr  0.74004340  0.36947064  0.96547197     2.77540
O2042       O  0.74264288  0.44232994  0.93440717    -0.97590
O2043       O  0.69670229  0.38901513  0.97513642    -0.78410
Zr2044     Zr  0.80889492  0.31801442  0.96077975     2.70070
O2045       O  0.81587677  0.37263700  0.91905309    -0.79660
O2046       O  0.85403488  0.29764744  0.96608160    -0.98740
Zr2047     Zr  0.78144754  0.34014599  0.02797505     2.21500
Zr2048     Zr  0.74821705  0.24881058  0.95232393     2.11130
O2049       O  0.76625291  0.32309302  0.94392145    -2.47430
O2050       O  0.78335515  0.36827207  0.98034167    -0.79450
O2051       O  0.72078778  0.29724151  0.97169393    -0.71650
O2052       O  0.81030008  0.29189168  0.00950016    -2.32600
O2053       O  0.73776583  0.34409027  0.01328638    -2.28810
O2054       O  0.79224299  0.24369181  0.96924641    -0.73410
H2055       H  0.74052089  0.18795119  0.00454198     0.78590
H2056       H  0.82749778  0.29098039  0.01726271     0.79680
H2057       H  0.76709504  0.33488166  0.92456437     0.81900
H2058       H  0.72749035  0.36324734  0.02210038     0.79510
H2059       H  0.84554762  0.20117962  0.02099180     0.42550
H2060       H  0.85480952  0.26874329  0.97929248     0.41520
H2061       H  0.80670834  0.40004697  0.92159094     0.41190
H2062       H  0.75437032  0.43752501  0.92007129     0.39130
H2063       H  0.68557861  0.37290505  0.96368788     0.42260
H2064       H  0.67567314  0.31358603  0.01310749     0.37040
H2065       H  0.73783933  0.18002956  0.04978152     0.43160
H2066       H  0.77650110  0.13759344  0.05224155     0.39580
H2067       H  0.72565906  0.44789469  0.92505442     0.44490
H2068       H  0.66900003  0.26422470  0.02760798     0.43220
H2069       H  0.80469294  0.14614984  0.06095553     0.43350
H2070       H  0.85847937  0.28970133  0.94844045     0.43710
O2071       O  0.70942836  0.80201831  0.04814043    -0.75160
O2072       O  0.75004266  0.79604470  0.06246847    -0.54070
C2073       C  0.72573360  0.78750795  0.06696834     0.78570
O2074       O  0.78000812  0.65657421  0.99218249    -0.59760
O2075       O  0.75273148  0.66803227  0.95469287    -0.52790
C2076       C  0.76699667  0.64270761  0.97327122     0.70580
O2077       O  0.80328882  0.73930909  0.05727936    -0.74320
O2078       O  0.79914806  0.81394989  0.05958420    -0.54880
C2079       C  0.80659352  0.77389336  0.06931889     0.76590
O2080       O  0.68174384  0.74251234  0.97933075    -0.59460
O2081       O  0.70046487  0.71768885  0.94427709    -0.52580
C2082       C  0.68121871  0.72231035  0.95895577     0.73180
Zr2083     Zr  0.71294949  0.77301849  0.00754268     2.54710
O2084       O  0.70222754  0.70221230  0.03756806    -0.80030
O2085       O  0.67099089  0.80340638  0.01368777    -0.93450
Zr2086     Zr  0.78340338  0.72015708  0.01372818     2.64680
O2087       O  0.76991884  0.65754738  0.04882643    -0.98400
O2088       O  0.82650227  0.68956710  0.01536932    -0.80460
O2089       O  0.75456535  0.76717433  0.02874977    -0.83820
O2090       O  0.74110774  0.72322840  0.99218301    -2.18530
O2091       O  0.71851466  0.86748673  0.91194614    -0.67210
O2092       O  0.72152725  0.79703148  0.90189492    -0.51770
C2093       C  0.71514886  0.83954839  0.89611257     0.71560
O2094       O  0.82208418  0.87897090  0.96521335    -0.60120
O2095       O  0.81882048  0.87114946  0.01107819    -0.52090
C2096       C  0.83126561  0.88331585  0.98854241     0.73360
O2097       O  0.80768192  0.77165356  0.91458389    -0.71510
O2098       O  0.76981814  0.73812581  0.90622953    -0.50190
C2099       C  0.79334654  0.74804586  0.90092926     0.74750
O2100       O  0.75468564  0.93714765  0.97103630    -0.66840
O2101       O  0.76506016  0.91869486  0.01652179    -0.54040
C2102       C  0.76157847  0.94740884  0.99398708     0.73130
Zr2103     Zr  0.73682280  0.87279607  0.95472319     2.77540
O2104       O  0.73873996  0.94597375  0.92396869    -0.97590
O2105       O  0.69411880  0.89530838  0.96483094    -0.78410
Zr2106     Zr  0.80401832  0.81272201  0.95295499     2.70070
O2107       O  0.82161896  0.86181643  0.91334199    -0.79660
O2108       O  0.84629267  0.78067765  0.96542033    -0.98740
Zr2109     Zr  0.77437687  0.83873737  0.02022187     2.21500
Zr2110     Zr  0.74323107  0.75018960  0.94352477     2.11130
O2111       O  0.76236871  0.82348107  0.93385867    -2.47430
O2112       O  0.77864043  0.86307387  0.97228444    -0.79450
O2113       O  0.71642656  0.80163992  0.96066383    -0.71650
O2114       O  0.80263746  0.79071049  0.00155398    -2.32600
O2115       O  0.73161446  0.84672170  0.00154226    -2.28810
O2116       O  0.78510787  0.74178665  0.96497289    -0.73410
H2117       H  0.73337099  0.69361816  0.99583467     0.78590
H2118       H  0.81961781  0.78968423  0.00984855     0.79680
H2119       H  0.76385152  0.83449202  0.91447264     0.81900
H2120       H  0.72180499  0.86750833  0.00960724     0.79510
H2121       H  0.83742204  0.71074448  0.02355678     0.42550
H2122       H  0.84363981  0.74766308  0.96777069     0.41520
H2123       H  0.80873148  0.88601739  0.90798682     0.41190
H2124       H  0.75130553  0.94211293  0.91020508     0.39130
H2125       H  0.68249093  0.88085946  0.95296889     0.42260
H2126       H  0.66498271  0.81821369  0.99512750     0.37040
H2127       H  0.71776167  0.69419331  0.04931254     0.43160
H2128       H  0.75526175  0.64373579  0.04037497     0.39580
H2129       H  0.72206304  0.95016000  0.91384655     0.44490
H2130       H  0.65977448  0.77668343  0.01852374     0.43220
H2131       H  0.78382242  0.63505748  0.05028047     0.43350
H2132       H  0.85598572  0.78860122  0.94844113     0.43710
O2133       O  0.97267757  0.06489087  0.05271661    -0.75160
O2134       O  0.51220197  0.04705079  0.06619906    -0.54070
C2135       C  0.98810170  0.04491726  0.07085610     0.78570
O2136       O  0.52583939  0.89830101  0.99676656    -0.59760
O2137       O  0.50056012  0.91680864  0.95792095    -0.52790
C2138       C  0.51305960  0.88806631  0.97614940     0.70580
O2139       O  0.55859610  0.98169171  0.06297166    -0.74320
O2140       O  0.56204387  0.05771036  0.06200290    -0.54880
C2141       C  0.56589751  0.01691374  0.07353012     0.76590
O2142       O  0.93805032  0.98797656  0.99671187    -0.59460
O2143       O  0.94922723  0.96675511  0.95751694    -0.52580
C2144       C  0.93322353  0.96780716  0.97692988     0.73180
Zr2145     Zr  0.97078738  0.03021130  0.01403789     2.54710
O2146       O  0.95375118  0.97004580  0.04846034    -0.80030
O2147       O  0.93160565  0.07441241  0.00944529    -0.93450
Zr2148     Zr  0.53697581  0.96182517  0.01891129     2.64680
O2149       O  0.52559776  0.90069406  0.05593344    -0.98400
O2150       O  0.57916005  0.93007927  0.01554192    -0.80460
O2151       O  0.51252923  0.01531421  0.03382927    -0.83820
O2152       O  0.49409962  0.97393250  0.99866520    -2.18530
O2153       O  0.97826933  0.12246155  0.91688647    -0.67210
O2154       O  0.97220730  0.05065862  0.90931323    -0.51770
C2155       C  0.97013316  0.09463032  0.90243704     0.71560
O2156       O  0.59385866  0.08788587  0.97626599    -0.60120
O2157       O  0.58042256  0.11263491  0.01408307    -0.52090
C2158       C  0.59730874  0.10882462  0.99607166     0.73360
O2159       O  0.55804768  0.01155546  0.91771434    -0.71510
O2160       O  0.51889043  0.97999416  0.91218644    -0.50190
C2161       C  0.54225877  0.98887519  0.90516345     0.74750
O2162       O  0.50708422  0.18613807  0.98274843    -0.66840
O2163       O  0.52757439  0.16088729  0.02398052    -0.54040
C2164       C  0.51719838  0.19179238  0.00570347     0.73130
Zr2165     Zr  0.49881956  0.12380288  0.95907963     2.77540
O2166       O  0.51981897  0.18600465  0.92960316    -0.97590
O2167       O  0.95832620  0.16374686  0.95660412    -0.78410
Zr2168     Zr  0.55989008  0.05021261  0.95663020     2.70070
O2169       O  0.57142487  0.11078345  0.91921918    -0.79660
O2170       O  0.59871509  0.00737161  0.95421125    -0.98740
Zr2171     Zr  0.53625121  0.08290887  0.02357700     2.21500
Zr2172     Zr  0.49374154  0.99863032  0.94971818     2.11130
O2173       O  0.51821575  0.06706574  0.93877259    -2.47430
O2174       O  0.54072877  0.10788023  0.97571631    -0.79450
O2175       O  0.97313042  0.05724360  0.96693016    -0.71650
O2176       O  0.55976243  0.02857192  0.00518633    -2.32600
O2177       O  0.99387758  0.09907104  0.00587636    -2.28810
O2178       O  0.53621909  0.98389760  0.97001753    -0.73410
H2179       H  0.98474077  0.94601265  0.00302904     0.78590
H2180       H  0.57689703  0.02469602  0.01306395     0.79680
H2181       H  0.51935504  0.07680560  0.91923602     0.81900
H2182       H  0.98536851  0.12154021  0.01378503     0.79510
H2183       H  0.58988856  0.94085711  0.02973526     0.42550
H2184       H  0.60424591  0.99649286  0.97350676     0.41520
H2185       H  0.57530283  0.13697646  0.92798677     0.41190
H2186       H  0.53043949  0.17133316  0.91778344     0.39130
H2187       H  0.94513921  0.13976678  0.95813783     0.42260
H2188       H  0.93699274  0.10462504  0.01249740     0.37040
H2189       H  0.96635844  0.94528125  0.05020962     0.43160
H2190       H  0.50859232  0.89035144  0.05031806     0.39580
H2191       H  0.00602752  0.20155747  0.91732687     0.44490
H2192       H  0.92191412  0.06138703  0.02582938     0.43220
H2193       H  0.53736424  0.87581342  0.05441159     0.43350
H2194       H  0.61166482  0.03016175  0.94681956     0.43710
O2195       O  0.56154277  0.49836255  0.06277955    -0.75160
O2196       O  0.52012582  0.48447751  0.07212877    -0.54070
C2197       C  0.54354473  0.49130850  0.07972539     0.78570
O2198       O  0.99856981  0.67362692  0.99694940    -0.59760
O2199       O  0.51976799  0.67754161  0.95687175    -0.52790
C2200       C  0.50973664  0.69543683  0.97569770     0.70580
O2201       O  0.97076914  0.54732096  0.06214685    -0.74320
O2202       O  0.96589267  0.47511190  0.05631134    -0.54880
C2203       C  0.96402385  0.50503486  0.07043629     0.76590
O2204       O  0.58723123  0.59811002  0.99100025    -0.59460
O2205       O  0.56829840  0.63359543  0.95075784    -0.52580
C2206       C  0.58717206  0.62624514  0.96806867     0.73180
Zr2207     Zr  0.55873478  0.54398117  0.01773593     2.54710
O2208       O  0.57298718  0.59432387  0.04805338    -0.80030
O2209       O  0.60012922  0.50667255  0.02102371    -0.93450
Zr2210     Zr  0.98825157  0.59635487  0.01847892     2.64680
O2211       O  0.99405994  0.63757809  0.05576891    -0.98400
O2212       O  0.94480719  0.62571062  0.01155080    -0.80460
O2213       O  0.51767115  0.54026523  0.03728911    -0.83820
O2214       O  0.53012257  0.60194730  0.99860574    -2.18530
O2215       O  0.55404867  0.49651067  0.92370412    -0.67210
O2216       O  0.54536131  0.57175737  0.90988091    -0.51770
C2217       C  0.55389491  0.53280519  0.90590871     0.71560
O2218       O  0.94006215  0.47319311  0.98233194    -0.60120
O2219       O  0.95727073  0.43740296  0.02347601    -0.52090
C2220       C  0.93951568  0.44408189  0.00462914     0.73360
O2221       O  0.96074164  0.60106008  0.92427749    -0.71510
O2222       O  0.49818751  0.63794677  0.91427803    -0.50190
C2223       C  0.97400098  0.63323854  0.91045548     0.74750
O2224       O  0.52195410  0.39662480  0.98956108    -0.66840
O2225       O  0.00850458  0.39554355  0.03261428    -0.54040
C2226       C  0.51505001  0.37617244  0.01323288     0.73130
Zr2227     Zr  0.53359236  0.47102996  0.96532154     2.77540
O2228       O  0.52106956  0.42287113  0.93304333    -0.97590
O2229       O  0.57526071  0.43474138  0.97354409    -0.78410
Zr2230     Zr  0.96629283  0.53293539  0.95962645     2.70070
O2231       O  0.95558473  0.49752490  0.92073550    -0.79660
O2232       O  0.92185951  0.55626599  0.96011373    -0.98740
Zr2233     Zr  0.99860779  0.47369985  0.02776202     2.21500
Zr2234     Zr  0.52663986  0.59958895  0.95039885     2.11130
O2235       O  0.50720690  0.53179747  0.94187782    -2.47430
O2236       O  0.99202476  0.47061319  0.98094492    -0.79450
O2237       O  0.55410253  0.53919861  0.97111540    -0.71650
O2238       O  0.96962351  0.53202021  0.00710513    -2.32600
O2239       O  0.54068832  0.47371480  0.01176902    -2.28810
O2240       O  0.98529021  0.59823456  0.97014488    -0.73410
H2241       H  0.53859196  0.62926185  0.00146813     0.78590
H2242       H  0.95271443  0.52862666  0.01441746     0.79680
H2243       H  0.50515763  0.53122417  0.92262827     0.81900
H2244       H  0.55061667  0.44841755  0.02141854     0.79510
H2245       H  0.93460820  0.60456019  0.02470826     0.42550
H2246       H  0.92275629  0.58781799  0.96299656     0.41520
H2247       H  0.95899924  0.46501921  0.92752739     0.41190
H2248       H  0.51407022  0.44367801  0.91669845     0.39130
H2249       H  0.58737490  0.45973724  0.97466419     0.42260
H2250       H  0.59656006  0.47441540  0.02825686     0.37040
H2251       H  0.55812253  0.59665274  0.05949133     0.43160
H2252       H  0.51282377  0.63993431  0.05831341     0.39580
H2253       H  0.53733094  0.41177508  0.92716125     0.44490
H2254       H  0.60946032  0.51735041  0.03619629     0.43220
H2255       H  0.98829727  0.66877986  0.04825136     0.43350
H2256       H  0.91535950  0.55867749  0.94100915     0.43710
O2257       O  0.84665565  0.15309930  0.80984405    -0.75160
O2258       O  0.83992118  0.22838894  0.79688014    -0.54070
C2259       C  0.83932709  0.19209500  0.81468495     0.78570
O2260       O  0.96310758  0.13778719  0.74698525    -0.59760
O2261       O  0.94722679  0.10757111  0.71171650    -0.52790
C2262       C  0.96516174  0.11329931  0.72878563     0.70580
O2263       O  0.93126476  0.22965050  0.79755134    -0.74320
O2264       O  0.89110303  0.21797299  0.80889007    -0.54880
C2265       C  0.91529672  0.21485536  0.81548214     0.76590
O2266       O  0.87990348  0.05030557  0.76310406    -0.59460
O2267       O  0.90201434  0.06138876  0.72333396    -0.52580
C2268       C  0.89259893  0.03688363  0.74455292     0.73180
Zr2269     Zr  0.86248050  0.12185178  0.76883538     2.54710
O2270       O  0.84857917  0.05648447  0.80224407    -0.80030
O2271       O  0.81926896  0.10772374  0.75255480    -0.93450
Zr2272     Zr  0.93277123  0.18621200  0.76277400     2.64680
O2273       O  0.95844493  0.13636483  0.79733851    -0.98400
O2274       O  0.96961092  0.23567118  0.75289484    -0.80460
O2275       O  0.89053091  0.17648841  0.78057764    -0.83820
O2276       O  0.90640440  0.12710977  0.75356791    -2.18530
O2277       O  0.84289359  0.13632253  0.66833108    -0.67210
O2278       O  0.88286262  0.10663433  0.66981967    -0.51770
C2279       C  0.85943180  0.10912956  0.66114382     0.71560
O2280       O  0.89821241  0.33948105  0.71435449    -0.60120
O2281       O  0.87904183  0.32540868  0.75556804    -0.52090
C2282       C  0.88927756  0.35212160  0.73541596     0.73360
O2283       O  0.93631386  0.24817638  0.66992928    -0.71510
O2284       O  0.93545060  0.17293662  0.66916071    -0.50190
C2285       C  0.94425938  0.21349120  0.66177532     0.74750
O2286       O  0.81275442  0.24775011  0.70985059    -0.66840
O2287       O  0.82733779  0.27467209  0.74733174    -0.54040
C2288       C  0.81039787  0.27117767  0.72845260     0.73130
Zr2289     Zr  0.84233745  0.19529454  0.69797845     2.77540
O2290       O  0.83054169  0.24083331  0.65357167    -0.97590
O2291       O  0.79978537  0.16167227  0.70110518    -0.78410
Zr2292     Zr  0.90546333  0.26917200  0.69834252     2.70070
O2293       O  0.88798987  0.31423846  0.65608165    -0.79660
O2294       O  0.94263204  0.31891941  0.69615677    -0.98740
Zr2295     Zr  0.86932157  0.24486834  0.76208495     2.21500
Zr2296     Zr  0.90534706  0.13999029  0.70452764     2.11130
O2297       O  0.88428011  0.20753931  0.68233756    -2.47430
O2298       O  0.86384967  0.25701694  0.71343355    -0.79450
O2299       O  0.86268535  0.12909897  0.72018061    -0.71650
O2300       O  0.91141304  0.25550571  0.74613397    -2.32600
O2301       O  0.84313521  0.18835890  0.74680779    -2.28810
O2302       O  0.92860153  0.20187973  0.71550839    -0.73410
H2303       H  0.91611157  0.10060590  0.76169560     0.78590
H2304       H  0.92038803  0.28001272  0.75226798     0.79680
H2305       H  0.88469186  0.21103011  0.66268283     0.81900
H2306       H  0.82604867  0.18898656  0.75346431     0.79510
H2307       H  0.98093343  0.22813189  0.76942767     0.42550
H2308       H  0.95741166  0.29877341  0.70221752     0.41520
H2309       H  0.87389486  0.33153186  0.66195052     0.41190
H2310       H  0.83852857  0.27061141  0.65378293     0.39130
H2311       H  0.80210903  0.13030045  0.69843088     0.42260
H2312       H  0.80876975  0.10347572  0.76901890     0.37040
H2313       H  0.83776756  0.03804930  0.79191514     0.43160
H2314       H  0.94622973  0.11939894  0.81013260     0.39580
H2315       H  0.84040099  0.22797735  0.64027376     0.44490
H2316       H  0.81999399  0.07749308  0.74763390     0.43220
H2317       H  0.96798728  0.15636067  0.80767846     0.43350
H2318       H  0.94509469  0.33058400  0.67645814     0.43710
O2319       O  0.84876603  0.66095037  0.80077563    -0.75160
O2320       O  0.85026667  0.73789400  0.79431806    -0.54070
C2321       C  0.84273434  0.69957414  0.80724040     0.78570
O2322       O  0.97682582  0.67143791  0.73912563    -0.59760
O2323       O  0.96210423  0.62259143  0.71274611    -0.52790
C2324       C  0.98009895  0.64084114  0.72499892     0.70580
O2325       O  0.94184180  0.74204117  0.79621763    -0.74320
O2326       O  0.90073387  0.74223036  0.80645741    -0.54880
C2327       C  0.92467106  0.73787450  0.81382983     0.76590
O2328       O  0.88314612  0.56007580  0.74991371    -0.59460
O2329       O  0.91275533  0.56778536  0.71650673    -0.52580
C2330       C  0.89779885  0.54410175  0.73370540     0.73180
Zr2331     Zr  0.87333583  0.63109661  0.76436925     2.54710
O2332       O  0.88045158  0.57027835  0.80359361    -0.80030
O2333       O  0.83047329  0.60201265  0.75803762    -0.93450
Zr2334     Zr  0.94231667  0.68939924  0.76587084     2.64680
O2335       O  0.94996472  0.62278142  0.80131226    -0.98400
O2336       O  0.98411439  0.70374988  0.78555572    -0.80460
O2337       O  0.89931628  0.68516155  0.78031709    -0.83820
O2338       O  0.91742030  0.63224772  0.75134851    -2.18530
O2339       O  0.85687703  0.64838923  0.66732099    -0.67210
O2340       O  0.89563952  0.61451707  0.66808348    -0.51770
C2341       C  0.87192279  0.61834317  0.66037829     0.71560
O2342       O  0.91594642  0.84498623  0.71523075    -0.60120
O2343       O  0.89409792  0.83097477  0.75495751    -0.52090
C2344       C  0.90573163  0.85671744  0.73587721     0.73360
O2345       O  0.96008248  0.74120005  0.68282909    -0.71510
O2346       O  0.94387149  0.68633046  0.66283744    -0.50190
C2347       C  0.95832570  0.72134124  0.66253128     0.74750
O2348       O  0.82709568  0.76809568  0.70463841    -0.66840
O2349       O  0.84065146  0.79491519  0.74248552    -0.54040
C2350       C  0.82446397  0.79359634  0.72240508     0.73130
Zr2351     Zr  0.85693732  0.71241846  0.69349847     2.77540
O2352       O  0.85149299  0.75977886  0.64828430    -0.97590
O2353       O  0.81296350  0.68740058  0.68908489    -0.78410
Zr2354     Zr  0.92342928  0.77580565  0.69837909     2.70070
O2355       O  0.91165325  0.81548524  0.65247632    -0.79660
O2356       O  0.95827608  0.83052531  0.69102718    -0.98740
Zr2357     Zr  0.88054698  0.75502420  0.75938574     2.21500
Zr2358     Zr  0.91887479  0.64845423  0.70217131     2.11130
O2359       O  0.90001112  0.71888177  0.68011713    -2.47430
O2360       O  0.88009687  0.77062770  0.71044756    -0.79450
O2361       O  0.87537939  0.64406087  0.71573007    -0.71650
O2362       O  0.92426849  0.76098573  0.74672945    -2.32600
O2363       O  0.85502957  0.69988106  0.74227477    -2.28810
O2364       O  0.94271901  0.70627094  0.71801664    -0.73410
H2365       H  0.92546119  0.60358032  0.75860204     0.78590
H2366       H  0.93377365  0.78476125  0.75302431     0.79680
H2367       H  0.90090099  0.72342424  0.66046174     0.81900
H2368       H  0.83750407  0.70133433  0.74753470     0.79510
H2369       H  0.99036265  0.73143502  0.77354706     0.42550
H2370       H  0.97249347  0.81642291  0.70323488     0.41520
H2371       H  0.90488582  0.84482747  0.65515756     0.41190
H2372       H  0.86241064  0.78650083  0.64894051     0.39130
H2373       H  0.81012786  0.66581059  0.70635231     0.42260
H2374       H  0.81880843  0.62482020  0.76277198     0.37040
H2375       H  0.89913078  0.56492135  0.80428333     0.43160
H2376       H  0.96507972  0.60828380  0.79523023     0.39580
H2377       H  0.86012889  0.74331889  0.63577674     0.44490
H2378       H  0.82895113  0.57566740  0.77315111     0.43220
H2379       H  0.95632880  0.63478570  0.81744190     0.43350
H2380       H  0.96398644  0.83037865  0.67230250     0.43710
O2381       O  0.59508451  0.42147042  0.80914484    -0.75160
O2382       O  0.59788743  0.49827933  0.79929459    -0.54070
C2383       C  0.59086183  0.46201034  0.81444198     0.78570
O2384       O  0.71426333  0.38479473  0.75345169    -0.59760
O2385       O  0.69941674  0.36527953  0.71411266    -0.52790
C2386       C  0.71641162  0.36506248  0.73329533     0.70580
O2387       O  0.68765375  0.48339951  0.80151346    -0.74320
O2388       O  0.64771589  0.47562332  0.81341998    -0.54880
C2389       C  0.67181567  0.47029190  0.81988633     0.76590
O2390       O  0.62348693  0.31086180  0.75821217    -0.59460
O2391       O  0.65004359  0.31973955  0.72175100    -0.52580
C2392       C  0.63685322  0.29587644  0.74046297     0.73180
Zr2393     Zr  0.61505946  0.38333161  0.77200419     2.54710
O2394       O  0.62273377  0.32731140  0.81349837    -0.80030
O2395       O  0.57116236  0.35672407  0.76933786    -0.93450
Zr2396     Zr  0.68689102  0.43705842  0.76787208     2.64680
O2397       O  0.70147345  0.38144822  0.80740360    -0.98400
O2398       O  0.72843177  0.47395401  0.76187378    -0.80460
O2399       O  0.64500738  0.43308519  0.78537529    -0.83820
O2400       O  0.65805123  0.38355583  0.75525074    -2.18530
O2401       O  0.59347174  0.39717166  0.67335048    -0.67210
O2402       O  0.63300169  0.36742040  0.67145118    -0.51770
C2403       C  0.60901999  0.36937616  0.66467327     0.71560
O2404       O  0.65892502  0.59336661  0.71951395    -0.60120
O2405       O  0.64219988  0.57996391  0.76196671    -0.52090
C2406       C  0.65106374  0.60595993  0.74102651     0.73360
O2407       O  0.69987690  0.48916401  0.68398914    -0.71510
O2408       O  0.68239475  0.43277161  0.66600501    -0.50190
C2409       C  0.69732033  0.46734990  0.66463797     0.74750
O2410       O  0.57454769  0.52373068  0.71336721    -0.66840
O2411       O  0.59147059  0.54994866  0.75021426    -0.54040
C2412       C  0.57489284  0.55052445  0.73064941     0.73130
Zr2413     Zr  0.59724631  0.46107900  0.70100143     2.77540
O2414       O  0.58751596  0.50710771  0.65618709    -0.97590
O2415       O  0.55234001  0.43963557  0.70352403    -0.78410
Zr2416     Zr  0.66515465  0.52415545  0.70205696     2.70070
O2417       O  0.64941018  0.56535683  0.65792283    -0.79660
O2418       O  0.69963818  0.57909620  0.69222633    -0.98740
Zr2419     Zr  0.62799588  0.50395257  0.76595455     2.21500
Zr2420     Zr  0.65752778  0.39822664  0.70609463     2.11130
O2421       O  0.63929466  0.46872109  0.68477151    -2.47430
O2422       O  0.62330256  0.51697748  0.71730351    -0.79450
O2423       O  0.61506911  0.39281576  0.72300017    -0.71650
O2424       O  0.67021168  0.50983338  0.75023297    -2.32600
O2425       O  0.59827774  0.45267655  0.75004358    -2.28810
O2426       O  0.68449448  0.45361498  0.72001656    -0.73410
H2427       H  0.66569732  0.35449489  0.76234183     0.78590
H2428       H  0.68057641  0.53266827  0.75651468     0.79680
H2429       H  0.63924122  0.47301266  0.66506350     0.81900
H2430       H  0.58130736  0.45634637  0.75635229     0.79510
H2431       H  0.72661246  0.50273436  0.76838309     0.42550
H2432       H  0.71447272  0.56512295  0.70347782     0.41520
H2433       H  0.64151173  0.59286481  0.66210624     0.41190
H2434       H  0.59875077  0.53386723  0.65525299     0.39130
H2435       H  0.55209340  0.41140818  0.71740909     0.42260
H2436       H  0.56067224  0.38036977  0.77493115     0.37040
H2437       H  0.64159617  0.32588482  0.81581025     0.43160
H2438       H  0.69636341  0.35173578  0.80330744     0.39580
H2439       H  0.59462399  0.49009836  0.64302402     0.44490
H2440       H  0.57011857  0.33062399  0.78467883     0.43220
H2441       H  0.72035199  0.38176313  0.80698983     0.43350
H2442       H  0.70417674  0.57896917  0.67312145     0.43710
O2443       O  0.59455068  0.90967747  0.80118927    -0.75160
O2444       O  0.58820935  0.98460808  0.78759400    -0.54070
C2445       C  0.58590619  0.94863262  0.80508645     0.78570
O2446       O  0.72200646  0.90680194  0.74326758    -0.59760
O2447       O  0.70726108  0.87491024  0.70814683    -0.52790
C2448       C  0.72540058  0.88339499  0.72472508     0.70580
O2449       O  0.68035320  0.98825708  0.79531341    -0.74320
O2450       O  0.64075297  0.97572088  0.80723073    -0.54880
C2451       C  0.66491755  0.97169012  0.81348321     0.76590
O2452       O  0.62787726  0.80975053  0.74868903    -0.59460
O2453       O  0.65702919  0.82078611  0.71465368    -0.52580
C2454       C  0.64277194  0.79594014  0.73199664     0.73180
Zr2455     Zr  0.61723831  0.87915005  0.76330542     2.54710
O2456       O  0.62554938  0.82254386  0.80435575    -0.80030
O2457       O  0.57452438  0.84863743  0.75802036    -0.93450
Zr2458     Zr  0.68686515  0.94119042  0.76260745     2.64680
O2459       O  0.69979864  0.87964445  0.79961481    -0.98400
O2460       O  0.72644409  0.98019036  0.77062475    -0.80460
O2461       O  0.64364584  0.93310379  0.77717992    -0.83820
O2462       O  0.66142386  0.88367347  0.74914342    -2.18530
O2463       O  0.59892883  0.89636867  0.66512173    -0.67210
O2464       O  0.63941011  0.86873502  0.66536519    -0.51770
C2465       C  0.61568454  0.86976917  0.65759701     0.71560
O2466       O  0.65320890  0.09791945  0.71446038    -0.60120
O2467       O  0.63264401  0.08060916  0.75477914    -0.52090
C2468       C  0.64295015  0.10853472  0.73544120     0.73360
O2469       O  0.68603393  0.01226986  0.66256806    -0.71510
O2470       O  0.68602381  0.93744936  0.66013548    -0.50190
C2471       C  0.69191086  0.97930315  0.65156803     0.74750
O2472       O  0.56798217  0.01001627  0.70669779    -0.66840
O2473       O  0.58182737  0.03725787  0.74436602    -0.54040
C2474       C  0.56515907  0.03390064  0.72527757     0.73130
Zr2475     Zr  0.59830969  0.95810985  0.69306593     2.77540
O2476       O  0.58924219  0.00593595  0.64851662    -0.97590
O2477       O  0.55521361  0.92741942  0.69218357    -0.78410
Zr2478     Zr  0.66248047  0.02856462  0.69841560     2.70070
O2479       O  0.64951779  0.08685747  0.65970621    -0.79660
O2480       O  0.70400589  0.06458010  0.70180249    -0.98740
Zr2481     Zr  0.62260483  0.00176350  0.75899326     2.21500
Zr2482     Zr  0.66256389  0.90088559  0.70024887     2.11130
O2483       O  0.64113039  0.96953138  0.68007571    -2.47430
O2484       O  0.61972391  0.01792432  0.71030625    -0.79450
O2485       O  0.61917864  0.89169652  0.71454794    -0.71650
O2486       O  0.66597315  0.01166562  0.74605063    -2.32600
O2487       O  0.59755021  0.94604739  0.74171569    -2.28810
O2488       O  0.68555212  0.96067821  0.71478065    -0.73410
H2489       H  0.66988550  0.85529506  0.75600187     0.78590
H2490       H  0.67455267  0.03631950  0.75245497     0.79680
H2491       H  0.64156937  0.97476899  0.66038656     0.81900
H2492       H  0.58005066  0.94563249  0.74730642     0.79510
H2493       H  0.72538230  0.00918302  0.75741662     0.42550
H2494       H  0.71666948  0.04023210  0.70219094     0.41520
H2495       H  0.63061440  0.08507870  0.65898768     0.41190
H2496       H  0.60448086  0.00406975  0.63756343     0.39130
H2497       H  0.55640954  0.89739653  0.70432998     0.42260
H2498       H  0.56294991  0.86906595  0.76521568     0.37040
H2499       H  0.64437993  0.82272803  0.80705542     0.43160
H2500       H  0.69847637  0.85174150  0.79198827     0.39580
H2501       H  0.57579406  0.98942743  0.63997603     0.44490
H2502       H  0.57425403  0.82019388  0.77172443     0.43220
H2503       H  0.71842333  0.88402732  0.80207162     0.43350
H2504       H  0.70598811  0.08465484  0.68380306     0.43710
O2505       O  0.72379899  0.05113179  0.42397101    -0.75160
O2506       O  0.72916212  0.97662461  0.42262265    -0.54070
C2507       C  0.71819384  0.01561173  0.41482505     0.78570
O2508       O  0.85031108  0.06813495  0.46953764    -0.59760
O2509       O  0.83833417  0.08889919  0.50890570    -0.52790
C2510       C  0.85433312  0.08764434  0.48998417     0.70580
O2511       O  0.81896288  0.96711567  0.41979774    -0.74320
O2512       O  0.78287303  0.92414744  0.42358233    -0.54880
C2513       C  0.80418055  0.93646395  0.41252613     0.76590
O2514       O  0.75622491  0.14607526  0.47371632    -0.59460
O2515       O  0.78285082  0.13413491  0.51129350    -0.52580
C2516       C  0.76804665  0.15874188  0.49410844     0.73180
Zr2517     Zr  0.75235437  0.07582066  0.45560905     2.54710
O2518       O  0.76480456  0.12659418  0.41405382    -0.80030
O2519       O  0.71157553  0.11521643  0.45340710    -0.93450
Zr2520     Zr  0.82035345  0.01692612  0.45440809     2.64680
O2521       O  0.83132469  0.06740924  0.41217239    -0.98400
O2522       O  0.86242963  0.98228973  0.45630883    -0.80460
O2523       O  0.77709317  0.02063714  0.43890064    -0.83820
O2524       O  0.79602029  0.07558223  0.46810659    -2.18530
O2525       O  0.73763361  0.04998435  0.54302235    -0.67210
O2526       O  0.77630233  0.05955290  0.56032153    -0.51770
C2527       C  0.75254926  0.05142630  0.56347751     0.71560
O2528       O  0.79687118  0.86301337  0.51488450    -0.60120
O2529       O  0.77045105  0.87110498  0.47662675    -0.52090
C2530       C  0.78331730  0.84740356  0.49655731     0.73360
O2531       O  0.83054672  0.97722422  0.56342494    -0.71510
O2532       O  0.81069567  0.04388633  0.56083399    -0.50190
C2533       C  0.82716038  0.01574996  0.57185493     0.74750
O2534       O  0.70972295  0.92632719  0.50839891    -0.66840
O2535       O  0.72243676  0.90737151  0.46882205    -0.54040
C2536       C  0.70736441  0.90482094  0.48868331     0.73130
Zr2537     Zr  0.73587995  0.98533363  0.52151694     2.77540
O2538       O  0.72513586  0.93876702  0.56512252    -0.97590
O2539       O  0.69128498  0.00862840  0.51869632    -0.78410
Zr2540     Zr  0.80795365  0.93681060  0.52639496     2.70070
O2541       O  0.80144416  0.88509951  0.56947136    -0.79660
O2542       O  0.85073381  0.90672517  0.52446187    -0.98740
Zr2543     Zr  0.76119719  0.94906040  0.46012094     2.21500
Zr2544     Zr  0.79517350  0.05835992  0.51656234     2.11130
O2545       O  0.77878632  0.98677988  0.53778564    -2.47430
O2546       O  0.76429766  0.93331154  0.50911542    -0.79450
O2547       O  0.75144356  0.05876842  0.50323931    -0.71650
O2548       O  0.80483086  0.94710672  0.47697784    -2.32600
O2549       O  0.73461448  0.00341163  0.47383821    -2.28810
O2550       O  0.82372384  0.00621006  0.50337197    -0.73410
H2551       H  0.80343369  0.10498913  0.46175988     0.78590
H2552       H  0.81403748  0.92310904  0.47121836     0.79680
H2553       H  0.77901148  0.98100769  0.55738364     0.81900
H2554       H  0.71695287  0.00086197  0.46810548     0.79510
H2555       H  0.85942559  0.94966285  0.46293483     0.42550
H2556       H  0.86207614  0.93347513  0.52266460     0.41520
H2557       H  0.78262950  0.88241963  0.57068916     0.41190
H2558       H  0.74146904  0.93372258  0.57577992     0.39130
H2559       H  0.69148108  0.04020618  0.50853674     0.42260
H2560       H  0.69852670  0.09114654  0.45754852     0.37040
H2561       H  0.77607376  0.10822855  0.40494099     0.43160
H2562       H  0.82817621  0.09809845  0.41564606     0.39580
H2563       H  0.71503749  0.95874003  0.57430721     0.44490
H2564       H  0.70844834  0.12864010  0.43385170     0.43220
H2565       H  0.85016527  0.06529766  0.41158758     0.43350
H2566       H  0.85446116  0.88972644  0.54320293     0.43710
O2567       O  0.72694062  0.54970354  0.42820742    -0.75160
O2568       O  0.72920444  0.47377924  0.42955637    -0.54070
C2569       C  0.72089713  0.51415379  0.41917831     0.78570
O2570       O  0.85407704  0.54647647  0.48145671    -0.59760
O2571       O  0.83934048  0.58427863  0.51301450    -0.52790
C2572       C  0.85699041  0.57391569  0.49794042     0.70580
O2573       O  0.81825426  0.45507438  0.43115499    -0.74320
O2574       O  0.77953424  0.42011413  0.43294352    -0.54880
C2575       C  0.80191425  0.42783947  0.42311843     0.76590
O2576       O  0.76319356  0.64415453  0.47555717    -0.59460
O2577       O  0.78785434  0.63259114  0.51468151    -0.52580
C2578       C  0.77558923  0.65794289  0.49516877     0.73180
Zr2579     Zr  0.75417082  0.57134626  0.46253211     2.54710
O2580       O  0.76734062  0.61924431  0.42025304    -0.80030
O2581       O  0.71354837  0.61044215  0.46188393    -0.93450
Zr2582     Zr  0.82011266  0.50526072  0.46447544     2.64680
O2583       O  0.83186167  0.55827832  0.42352391    -0.98400
O2584       O  0.86034317  0.46536275  0.46480862    -0.80460
O2585       O  0.77708662  0.51217941  0.44816020    -0.83820
O2586       O  0.79774013  0.56724567  0.47598851    -2.18530
O2587       O  0.73669693  0.55329532  0.55076389    -0.67210
O2588       O  0.77600073  0.55365447  0.56792879    -0.51770
C2589       C  0.75187593  0.55175732  0.57120096     0.71560
O2590       O  0.79319315  0.35659825  0.52494043    -0.60120
O2591       O  0.76806448  0.36617441  0.48547946    -0.52090
C2592       C  0.78067110  0.34192429  0.50541345     0.73360
O2593       O  0.82313862  0.47417473  0.57580954    -0.71510
O2594       O  0.83073392  0.54670318  0.55630204    -0.50190
C2595       C  0.83109110  0.51573941  0.57716383     0.74750
O2596       O  0.70348250  0.43982230  0.51484997    -0.66840
O2597       O  0.71773467  0.40577607  0.48130673    -0.54040
C2598       C  0.70092825  0.41236733  0.49833394     0.73130
Zr2599     Zr  0.73525450  0.48773226  0.53037726     2.77540
O2600       O  0.72863269  0.43344636  0.57253226    -0.97590
O2601       O  0.69285515  0.51045070  0.54101662    -0.78410
Zr2602     Zr  0.80467837  0.43074440  0.53733039     2.70070
O2603       O  0.79843558  0.37666443  0.57956408    -0.79660
O2604       O  0.84830404  0.40322199  0.53738950    -0.98740
Zr2605     Zr  0.75797738  0.44407011  0.47014059     2.21500
Zr2606     Zr  0.79703526  0.55442671  0.52439368     2.11130
O2607       O  0.77811663  0.48563801  0.54783201    -2.47430
O2608       O  0.76100532  0.43068106  0.51937000    -0.79450
O2609       O  0.75328780  0.55870414  0.51037690    -0.71650
O2610       O  0.80153843  0.43882064  0.48793266    -2.32600
O2611       O  0.73354048  0.50268192  0.48223487    -2.28810
O2612       O  0.82264659  0.49679248  0.51293996    -0.73410
H2613       H  0.80622440  0.59535809  0.46882599     0.78590
H2614       H  0.81022460  0.41382359  0.48268026     0.79680
H2615       H  0.77813099  0.47930701  0.56746948     0.81900
H2616       H  0.71601035  0.50251330  0.47556184     0.79510
H2617       H  0.85996925  0.44139014  0.48140005     0.42550
H2618       H  0.85819667  0.42060825  0.54915496     0.41520
H2619       H  0.78014644  0.36821160  0.57873731     0.41190
H2620       H  0.74534126  0.42940561  0.58251802     0.39130
H2621       H  0.68930250  0.53845064  0.52746958     0.42260
H2622       H  0.70047351  0.58625455  0.46486811     0.37040
H2623       H  0.78005655  0.60097129  0.41289894     0.43160
H2624       H  0.83538583  0.58701454  0.42978220     0.39580
H2625       H  0.71774483  0.44927100  0.58353676     0.44490
H2626       H  0.71062729  0.62583931  0.44264102     0.43220
H2627       H  0.84885784  0.54784655  0.41916693     0.43350
H2628       H  0.84775456  0.37212147  0.54822634     0.43710
O2629       O  0.97233903  0.31806423  0.43637856    -0.75160
O2630       O  0.97725656  0.25001357  0.42464008    -0.54070
C2631       C  0.96757814  0.29110710  0.42059965     0.78570
O2632       O  0.60398558  0.29145620  0.48767215    -0.59760
O2633       O  0.58894285  0.32289887  0.52224065    -0.52790
C2634       C  0.60676952  0.31435856  0.50665396     0.70580
O2635       O  0.56738686  0.20818332  0.43275987    -0.74320
O2636       O  0.52830166  0.17736185  0.42804203    -0.54880
C2637       C  0.55168978  0.18325491  0.42147642     0.76590
O2638       O  0.51482786  0.39788737  0.47830884    -0.59460
O2639       O  0.53823730  0.38290160  0.51821391    -0.52580
C2640       C  0.52696330  0.40958821  0.49855527     0.73180
Zr2641     Zr  0.50467299  0.32598524  0.46626192     2.54710
O2642       O  0.52084142  0.36599319  0.42303499    -0.80030
O2643       O  0.96997904  0.37214962  0.47613017    -0.93450
Zr2644     Zr  0.56895150  0.25732542  0.46731877     2.64680
O2645       O  0.58213305  0.31341742  0.42839627    -0.98400
O2646       O  0.60761637  0.21364192  0.46579101    -0.80460
O2647       O  0.52726995  0.27066566  0.44753196    -0.83820
O2648       O  0.54761104  0.31917679  0.48093396    -2.18530
O2649       O  0.98412282  0.30262441  0.54684509    -0.67210
O2650       O  0.52006307  0.31269516  0.56875907    -0.51770
C2651       C  0.99642913  0.30210241  0.56929618     0.71560
O2652       O  0.53754370  0.10968748  0.52210118    -0.60120
O2653       O  0.51321711  0.12333104  0.48204947    -0.52090
C2654       C  0.52505119  0.09703841  0.50194758     0.73360
O2655       O  0.56959958  0.21780585  0.57809175    -0.71510
O2656       O  0.56651488  0.29454687  0.56934839    -0.50190
C2657       C  0.57356485  0.25833799  0.58471060     0.74750
O2658       O  0.96464442  0.18818536  0.49714331    -0.66840
O2659       O  0.96770457  0.15945918  0.46124987    -0.54040
C2660       C  0.95495702  0.16349935  0.48158934     0.73130
Zr2661     Zr  0.98037461  0.23453822  0.52832274     2.77540
O2662       O  0.97536841  0.16299084  0.56043855    -0.97590
O2663       O  0.93529967  0.24796260  0.53523857    -0.78410
Zr2664     Zr  0.54914851  0.18069038  0.53723462     2.70070
O2665       O  0.53821336  0.12675535  0.57810818    -0.79660
O2666       O  0.59145493  0.14711311  0.53884397    -0.98740
Zr2667     Zr  0.50554431  0.20268125  0.46379190     2.21500
Zr2668     Zr  0.54381841  0.30315951  0.52880952     2.11130
O2669       O  0.52243828  0.23412865  0.54915296    -2.47430
O2670       O  0.00754606  0.18416168  0.51360268    -0.79450
O2671       O  0.00119609  0.30569923  0.51315062    -0.71650
O2672       O  0.54748850  0.19220054  0.48703765    -2.32600
O2673       O  0.98154671  0.25798336  0.48031439    -2.28810
O2674       O  0.56950087  0.24622074  0.51630709    -0.73410
H2675       H  0.55679754  0.34703213  0.47500657     0.78590
H2676       H  0.55622693  0.16730286  0.48173866     0.79680
H2677       H  0.52191660  0.22882982  0.56884656     0.81900
H2678       H  0.96405802  0.26148149  0.47338935     0.79510
H2679       H  0.60662879  0.18850244  0.48171538     0.42550
H2680       H  0.60282621  0.16804622  0.54671587     0.41520
H2681       H  0.52074414  0.11649204  0.57411559     0.41190
H2682       H  0.98425287  0.16491071  0.57798968     0.39130
H2683       H  0.93037954  0.27295230  0.52004694     0.42260
H2684       H  0.95648016  0.35012097  0.48303340     0.37040
H2685       H  0.51774281  0.34543374  0.40997882     0.43160
H2686       H  0.58626581  0.34066984  0.43605050     0.39580
H2687       H  0.95688669  0.15984991  0.56387734     0.44490
H2688       H  0.96294553  0.38862896  0.45844095     0.43220
H2689       H  0.59890318  0.30248728  0.42372605     0.43350
H2690       H  0.59060948  0.11980362  0.55339504     0.43710
O2691       O  0.97795450  0.80035532  0.42596934    -0.75160
O2692       O  0.98268835  0.72548285  0.42526668    -0.54070
C2693       C  0.97271617  0.76515324  0.41633666     0.78570
O2694       O  0.60722802  0.79673645  0.47654481    -0.59760
O2695       O  0.59305055  0.83362147  0.50929882    -0.52790
C2696       C  0.61005903  0.82338941  0.49348827     0.70580
O2697       O  0.57171408  0.69589223  0.43108865    -0.74320
O2698       O  0.53295460  0.66183640  0.43194627    -0.54880
C2699       C  0.55595959  0.66708412  0.42343803     0.76590
O2700       O  0.51503060  0.89582176  0.47092641    -0.59460
O2701       O  0.54177101  0.88667742  0.50835549    -0.52580
C2702       C  0.52750537  0.91069595  0.49011886     0.73180
Zr2703     Zr  0.50919074  0.82315867  0.45619706     2.54710
O2704       O  0.52771556  0.86245895  0.41402860    -0.80030
O2705       O  0.97308879  0.87536573  0.44697676    -0.93450
Zr2706     Zr  0.57372773  0.75282328  0.46104001     2.64680
O2707       O  0.58591374  0.79917375  0.41785832    -0.98400
O2708       O  0.61431186  0.71291724  0.46481871    -0.80460
O2709       O  0.53128622  0.76158608  0.44311270    -0.83820
O2710       O  0.55235597  0.81778109  0.47089325    -2.18530
O2711       O  0.98969461  0.81234465  0.54288356    -0.67210
O2712       O  0.52836187  0.81868063  0.56092738    -0.51770
C2713       C  0.50414167  0.81371086  0.56375953     0.71560
O2714       O  0.54426235  0.61036106  0.52412720    -0.60120
O2715       O  0.51759097  0.61688460  0.48590381    -0.52090
C2716       C  0.53051809  0.59427689  0.50621533     0.73360
O2717       O  0.57797468  0.72326349  0.57193819    -0.71510
O2718       O  0.57592833  0.79940254  0.55778857    -0.50190
C2719       C  0.58308646  0.76501947  0.57501554     0.74750
O2720       O  0.95823364  0.68919495  0.51157440    -0.66840
O2721       O  0.97060894  0.65969077  0.47561407    -0.54040
C2722       C  0.95493308  0.66316059  0.49422329     0.73130
Zr2723     Zr  0.98740230  0.74394415  0.52490713     2.77540
O2724       O  0.97870033  0.69956342  0.56990690    -0.97590
O2725       O  0.94330046  0.76852325  0.52571290    -0.78410
Zr2726     Zr  0.55595858  0.68429683  0.53443832     2.70070
O2727       O  0.54675932  0.63374821  0.57723440    -0.79660
O2728       O  0.59860879  0.65248870  0.53459683    -0.98740
Zr2729     Zr  0.51122095  0.69501166  0.46612417     2.21500
Zr2730     Zr  0.54970170  0.80837132  0.51920862     2.11130
O2731       O  0.52997285  0.74163501  0.54354670    -2.47430
O2732       O  0.51284155  0.68541734  0.51528913    -0.79450
O2733       O  0.50645261  0.81317652  0.50382090    -0.71650
O2734       O  0.55410862  0.68845877  0.48536904    -2.32600
O2735       O  0.98740060  0.75582443  0.47687967    -2.28810
O2736       O  0.57501816  0.74874437  0.50947554    -0.73410
H2737       H  0.56131081  0.84527067  0.46344000     0.78590
H2738       H  0.56247854  0.66223449  0.48128266     0.79680
H2739       H  0.53011843  0.73910326  0.56313387     0.81900
H2740       H  0.96977281  0.75547772  0.47057242     0.79510
H2741       H  0.61077917  0.68296223  0.47616396     0.42550
H2742       H  0.60933768  0.66963743  0.54580296     0.41520
H2743       H  0.52785256  0.63253454  0.57749982     0.41190
H2744       H  0.99205711  0.70774265  0.58258558     0.39130
H2745       H  0.94082673  0.79099430  0.50855651     0.42260
H2746       H  0.95769422  0.85680786  0.45216487     0.37040
H2747       H  0.52437963  0.84233491  0.40076266     0.43160
H2748       H  0.58683905  0.83029067  0.42148878     0.39580
H2749       H  0.96269545  0.71230683  0.57524943     0.44490
H2750       H  0.97159777  0.88459921  0.42682766     0.43220
H2751       H  0.60393194  0.79087858  0.41588635     0.43350
H2752       H  0.59730332  0.62189517  0.54597776     0.43710
C2753       C  0.53030513  0.54581443  0.50769473    -0.00020
C2754       C  0.55149185  0.52653934  0.49788198    -0.11900
C2755       C  0.55038706  0.48220005  0.49373659     0.02210
C2756       C  0.52794194  0.45697994  0.49986924    -0.00110
C2757       C  0.50684118  0.47597561  0.50988157    -0.11840
C2758       C  0.50778631  0.52051297  0.51363035     0.02100
H2759       H  0.56840947  0.54679384  0.49230835     0.15080
H2760       H  0.99011130  0.45559909  0.51520268     0.15080
C2761       C  0.98565914  0.53930851  0.52360509     0.36730
C2762       C  0.57182293  0.46393442  0.48189690     0.36640
N2763       N  0.96774795  0.55407805  0.53167144    -0.43610
N2764       N  0.58875800  0.44942987  0.47197927    -0.43610
C2765       C  0.52506941  0.04871369  0.49993260    -0.00020
C2766       C  0.52455097  0.03821858  0.47357844    -0.11900
C2767       C  0.52451263  0.99365432  0.46962974     0.02210
C2768       C  0.52528905  0.95833346  0.49249595    -0.00110
C2769       C  0.52577408  0.96854983  0.51890810    -0.11840
C2770       C  0.52572658  0.01315507  0.52283427     0.02100
H2771       H  0.52492891  0.06520130  0.45593395     0.15080
H2772       H  0.52625595  0.94141098  0.53668181     0.15080
C2773       C  0.52596535  0.02084661  0.55052522     0.36730
C2774       C  0.52507509  0.98525624  0.44207845     0.36640
N2775       N  0.52621620  0.02593612  0.57295486    -0.43610
N2776       N  0.52554143  0.97842145  0.42003065    -0.43610
C2777       C  0.63183024  0.33556620  0.50865663    -0.00020
C2778       C  0.63192244  0.38096608  0.51076456    -0.11900
C2779       C  0.65385632  0.40694144  0.50571708     0.02210
C2780       C  0.67686812  0.38676349  0.50005321    -0.00110
C2781       C  0.67717540  0.34063512  0.49908486    -0.11840
C2782       C  0.65479559  0.31487335  0.50319562     0.02100
H2783       H  0.61428741  0.39709278  0.51451385     0.15080
H2784       H  0.69491528  0.32466036  0.49549526     0.15080
C2785       C  0.65604049  0.26735527  0.50221593     0.36730
C2786       C  0.65150474  0.45491646  0.50456224     0.36640
N2787       N  0.65726284  0.22931322  0.50149240    -0.43610
N2788       N  0.64910937  0.49333371  0.50334428    -0.43610
C2789       C  0.88261450  0.59457375  0.49890922    -0.00020
C2790       C  0.90115471  0.58400039  0.48118285    -0.11900
C2791       C  0.92512702  0.60450736  0.47961954     0.02210
C2792       C  0.93096730  0.63680994  0.49602239    -0.00110
C2793       C  0.91297886  0.64536652  0.51476257    -0.11840
C2794       C  0.88916065  0.62466974  0.51646499     0.02100
H2795       H  0.89693796  0.55996763  0.46800338     0.15080
H2796       H  0.91719775  0.66918442  0.52808262     0.15080
C2797       C  0.87215629  0.63585163  0.53637757     0.36730
C2798       C  0.94297656  0.59128938  0.46104248     0.36640
N2799       N  0.85887964  0.64538770  0.55247117    -0.43610
N2800       N  0.95710776  0.58034770  0.44615400    -0.43610
C2801       C  0.68399155  0.87942661  0.48781511    -0.00020
C2802       C  0.66389484  0.90150139  0.47155915    -0.11900
C2803       C  0.63920521  0.88457275  0.47436570     0.02210
C2804       C  0.63475642  0.84482292  0.49338993    -0.00110
C2805       C  0.65497496  0.82159768  0.50894897    -0.11840
C2806       C  0.67971270  0.83906645  0.50650295     0.02100
H2807       H  0.66733536  0.93312778  0.45760819     0.15080
H2808       H  0.65139976  0.78999234  0.52283170     0.15080
C2809       C  0.70027917  0.81548908  0.52325290     0.36730
C2810       C  0.61861589  0.90854818  0.45782599     0.36640
N2811       N  0.71673011  0.79648249  0.53665793    -0.43610
N2812       N  0.60196187  0.92755928  0.44478213    -0.43610
C2813       C  0.78155813  0.79833879  0.49801120    -0.00020
C2814       C  0.75836901  0.78084435  0.48925835    -0.11900
C2815       C  0.75581705  0.73526802  0.48804119     0.02210
C2816       C  0.77687458  0.70637986  0.49548504    -0.00110
C2817       C  0.79995733  0.72363770  0.50457934    -0.11840
C2818       C  0.80248955  0.76920252  0.50589169     0.02100
H2819       H  0.74205682  0.80295307  0.48336931     0.15080
H2820       H  0.81629890  0.70150408  0.51026798     0.15080
C2821       C  0.82708600  0.78523468  0.51401167     0.36730
C2822       C  0.73117821  0.71898001  0.48019146     0.36640
N2823       N  0.84689121  0.79774939  0.52048447    -0.43610
N2824       N  0.71132264  0.70626691  0.47401625    -0.43610
C2825       C  0.76724305  0.20582271  0.49712525    -0.00020
C2826       C  0.77703439  0.23689365  0.47573725    -0.11900
C2827       C  0.78450837  0.27941508  0.47969721     0.02210
C2828       C  0.78002056  0.29346596  0.50455732    -0.00110
C2829       C  0.76990726  0.26247900  0.52615083    -0.11840
C2830       C  0.76422412  0.21825385  0.52286327     0.02100
H2831       H  0.78128335  0.22639860  0.45669609     0.15080
H2832       H  0.76619572  0.27288561  0.54530665     0.15080
C2833       C  0.75568682  0.18617153  0.54616192     0.36730
C2834       C  0.79992385  0.30526375  0.45915815     0.36640
N2835       N  0.74907398  0.16058951  0.56500694    -0.43610
N2836       N  0.81350941  0.32294278  0.44272964    -0.43610
C2837       C  0.88032559  0.10615621  0.49184951    -0.00020
C2838       C  0.90004792  0.08197204  0.48259604    -0.11900
C2839       C  0.92457750  0.09955075  0.47931110     0.02210
C2840       C  0.93017516  0.14113057  0.48695948    -0.00110
C2841       C  0.91121823  0.16379182  0.49819347    -0.11840
C2842       C  0.88614072  0.14751144  0.49993322     0.02100
H2843       H  0.89601233  0.04977259  0.47667939     0.15080
H2844       H  0.91547303  0.19631223  0.50346721     0.15080
C2845       C  0.86683738  0.17721047  0.50642224     0.36730
C2846       C  0.94314460  0.07472645  0.46724195     0.36640
N2847       N  0.85232558  0.20333665  0.51098739    -0.43610
N2848       N  0.95767499  0.05477409  0.45719183    -0.43610
C2849       C  0.70690126  0.99392807  0.62766054    -0.00020
C2850       C  0.73184530  0.97816357  0.62808572    -0.11900
C2851       C  0.74919792  0.00008407  0.60936254     0.02210
C2852       C  0.74147693  0.03928834  0.59033758    -0.00110
C2853       C  0.71712454  0.05702020  0.59181121    -0.11840
C2854       C  0.69949199  0.03369008  0.60922802     0.02100
H2855       H  0.73779453  0.94888841  0.64319983     0.15080
H2856       H  0.71091351  0.08659832  0.57707641     0.15080
C2857       C  0.67358726  0.05065929  0.60717385     0.36730
C2858       C  0.77334697  0.97793418  0.60897296     0.36640
N2859       N  0.65289943  0.06444828  0.60501170    -0.43610
N2860       N  0.79172824  0.95668757  0.60973507    -0.43610
C2861       C  0.59733173  0.78045152  0.59884702    -0.00020
C2862       C  0.61138290  0.82131890  0.59189613    -0.11900
C2863       C  0.61598207  0.85084771  0.61025478     0.02210
C2864       C  0.60817639  0.83954822  0.63747687    -0.00110
C2865       C  0.59640227  0.79668968  0.64562326    -0.11840
C2866       C  0.59085203  0.76755425  0.62658733     0.02100
H2867       H  0.61689498  0.83250556  0.57087566     0.15080
H2868       H  0.59142761  0.78597598  0.66681363     0.15080
C2869       C  0.57897943  0.72436824  0.63584013     0.36730
C2870       C  0.62746524  0.89428805  0.60009414     0.36640
N2871       N  0.57003111  0.68907743  0.64301232    -0.43610
N2872       N  0.63633161  0.92934886  0.59197034    -0.43610
C2873       C  0.71130574  0.48640038  0.63997197    -0.00020
C2874       C  0.70300221  0.52848642  0.62522468    -0.11900
C2875       C  0.71761643  0.55323971  0.60458160     0.02210
C2876       C  0.74118789  0.53617066  0.59842060    -0.00110
C2877       C  0.75054622  0.49584672  0.61471396    -0.11840
C2878       C  0.73551465  0.47042365  0.63497623     0.02100
H2879       H  0.68507624  0.54229962  0.63003730     0.15080
H2880       H  0.76880049  0.48247024  0.61051771     0.15080
C2881       C  0.74483470  0.42746268  0.64972374     0.36730
C2882       C  0.70836315  0.59654268  0.59013617     0.36640
N2883       N  0.75215134  0.39272191  0.66128043    -0.43610
N2884       N  0.70127209  0.63147710  0.57861660    -0.43610
C2885       C  0.60001268  0.33725699  0.64532362    -0.00020
C2886       C  0.58026720  0.30469698  0.65167469    -0.11900
C2887       C  0.57371227  0.27263599  0.63448919     0.02210
C2888       C  0.58703674  0.27087588  0.61021366    -0.00110
C2889       C  0.60744249  0.30237466  0.60488593    -0.11840
C2890       C  0.61356393  0.33491492  0.62140672     0.02100
H2891       H  0.56979721  0.30417507  0.67012646     0.15080
H2892       H  0.61722935  0.30467125  0.58581277     0.15080
C2893       C  0.63262441  0.36864481  0.61185915     0.36730
C2894       C  0.55280296  0.24191713  0.64193242     0.36640
N2895       N  0.64759812  0.39618120  0.60415496    -0.43610
N2896       N  0.53629696  0.21663263  0.64799492    -0.43610
C2897       C  0.64998395  0.65406932  0.74053007    -0.00020
C2898       C  0.62570971  0.67289675  0.74117808    -0.11900
C2899       C  0.62273239  0.71938286  0.73757725     0.02210
C2900       C  0.64453540  0.74733969  0.73391165    -0.00110
C2901       C  0.66887325  0.72835894  0.73350010    -0.11840
C2902       C  0.67175512  0.68181015  0.73671003     0.02100
H2903       H  0.60893719  0.65125066  0.74343358     0.15080
H2904       H  0.68567730  0.74987752  0.73111436     0.15080
C2905       C  0.69714386  0.66336129  0.73684610     0.36730
C2906       C  0.59709789  0.73740311  0.73616551     0.36640
N2907       N  0.71760796  0.64899168  0.73709555    -0.43610
N2908       N  0.57648770  0.75147924  0.73483479    -0.43610
C2909       C  0.64211306  0.15633630  0.73715851    -0.00020
C2910       C  0.61821812  0.17523394  0.73994261    -0.11900
C2911       C  0.61595946  0.22035731  0.74223056     0.02210
C2912       C  0.63807212  0.24725899  0.74137924    -0.00110
C2913       C  0.66202215  0.22855674  0.73808325    -0.11840
C2914       C  0.66420899  0.18344462  0.73577699     0.02100
H2915       H  0.60122033  0.15498970  0.73914126     0.15080
H2916       H  0.67905598  0.24951333  0.73693693     0.15080
C2917       C  0.68921292  0.16616058  0.73193475     0.36730
C2918       C  0.59074502  0.23879291  0.74358658     0.36640
N2919       N  0.70938811  0.15304403  0.72869968    -0.43610
N2920       N  0.57050543  0.25346187  0.74458705    -0.43610
C2921       C  0.86103661  0.58699341  0.64194089    -0.00020
C2922       C  0.83921067  0.60123070  0.62605461    -0.11900
C2923       C  0.82933905  0.57818457  0.60604428     0.02210
C2924       C  0.83901943  0.53490024  0.60279979    -0.00110
C2925       C  0.86048611  0.51909719  0.61983801    -0.11840
C2926       C  0.87184164  0.54501747  0.63851598     0.02100
H2927       H  0.83089521  0.63352660  0.62750155     0.15080
H2928       H  0.86964112  0.48820772  0.61717151     0.15080
C2929       C  0.89519361  0.52842351  0.65299449     0.36730
C2930       C  0.81169527  0.60540706  0.58709123     0.36640
N2931       N  0.91414596  0.51533317  0.66425244    -0.43610
N2932       N  0.79858507  0.63087231  0.57270495    -0.43610
C2933       C  0.97103393  0.74398250  0.63747746    -0.00020
C2934       C  0.95557184  0.76936587  0.61674171    -0.11900
C2935       C  0.96629641  0.79788678  0.59441083     0.02210
C2936       C  0.99309024  0.79857880  0.59118435    -0.00110
C2937       C  0.50869551  0.77566077  0.61296819    -0.11840
C2938       C  0.99783368  0.74995515  0.63637453     0.02100
H2939       H  0.93497158  0.76836774  0.61857490     0.15080
H2940       H  0.52931438  0.77671657  0.61139064     0.15080
C2941       C  0.51451636  0.73094662  0.65925955     0.36730
C2942       C  0.94940261  0.82736635  0.57565218     0.36640
N2943       N  0.52797907  0.71670627  0.67772319    -0.43610
N2944       N  0.93586708  0.85153302  0.56095880    -0.43610
C2945       C  0.55380465  0.58291753  0.72795919    -0.00020
C2946       C  0.53975157  0.59144285  0.70297926    -0.11900
C2947       C  0.51582035  0.61150516  0.70106320     0.02210
C2948       C  0.50623097  0.62519648  0.72415860    -0.00110
C2949       C  0.52154733  0.62181597  0.74809205    -0.11840
C2950       C  0.54515538  0.60053632  0.75037500     0.02100
H2951       H  0.54674253  0.57992758  0.68524118     0.15080
H2952       H  0.51431116  0.63309905  0.76580891     0.15080
C2953       C  0.55864993  0.59451581  0.77661852     0.36730
C2954       C  0.50152961  0.61688790  0.67536916     0.36640
N2955       N  0.56912765  0.59002422  0.79778255    -0.43610
N2956       N  0.99030676  0.62109506  0.65461815    -0.43610
C2957       C  0.80048238  0.82189088  0.72031449    -0.00020
C2958       C  0.79547802  0.84538426  0.74133543    -0.11900
C2959       C  0.77189282  0.86666754  0.74278777     0.02210
C2960       C  0.75194889  0.86483980  0.72281496    -0.00110
C2961       C  0.75771492  0.84446157  0.70059081    -0.11840
C2962       C  0.78161019  0.82401991  0.69888346     0.02100
H2963       H  0.80980100  0.84594691  0.75749953     0.15080
H2964       H  0.74345140  0.84435813  0.68432065     0.15080
C2965       C  0.78615868  0.80659829  0.67443272     0.36730
C2966       C  0.76910173  0.88908456  0.76565638     0.36640
N2967       N  0.78982774  0.79314415  0.65466204    -0.43610
N2968       N  0.76745264  0.90698839  0.78409014    -0.43610
C2969       C  0.85227013  0.08205476  0.63939695    -0.00020
C2970       C  0.85370286  0.10395320  0.61236313    -0.11900
C2971       C  0.84627264  0.08259401  0.59070982     0.02210
C2972       C  0.84137808  0.03459496  0.59467245    -0.00110
C2973       C  0.84153727  0.01186869  0.62218610    -0.11840
C2974       C  0.84486254  0.03580082  0.64420605     0.02100
H2975       H  0.85801197  0.13985135  0.60822376     0.15080
H2976       H  0.83585316  0.97676177  0.62667375     0.15080
C2977       C  0.83507075  0.01498639  0.67020327     0.36730
C2978       C  0.83770485  0.11391037  0.56658663     0.36640
N2979       N  0.82508006  0.99842992  0.68998629    -0.43610
N2980       N  0.82821487  0.13962426  0.54900328    -0.43610
C2981       C  0.96370611  0.22473248  0.64113325    -0.00020
C2982       C  0.98042939  0.26100580  0.64350151    -0.11900
C2983       C  0.99112562  0.28744150  0.62043146     0.02210
C2984       C  0.98544369  0.27716145  0.59465908    -0.00110
C2985       C  0.96959052  0.24010224  0.59275190    -0.11840
C2986       C  0.95960584  0.21265698  0.61571914     0.02100
H2987       H  0.98325379  0.27117547  0.66312211     0.15080
H2988       H  0.96465951  0.23309622  0.57305674     0.15080
C2989       C  0.94359557  0.17450278  0.61269858     0.36730
C2990       C  0.00516193  0.32777859  0.62320096     0.36640
N2991       N  0.93108498  0.14332722  0.61089505    -0.43610
N2992       N  0.51591203  0.36087107  0.62504205    -0.43610
C2993       C  0.99038788  0.09220205  0.72726412    -0.00020
C2994       C  0.51116385  0.10754383  0.74158656    -0.11900
C2995       C  0.53559420  0.08989893  0.74118377     0.02210
C2996       C  0.54010782  0.05669854  0.72532610    -0.00110
C2997       C  0.51932490  0.04179945  0.71061504    -0.11840
C2998       C  0.99462805  0.05840570  0.71183559     0.02100
H2999       H  0.50841541  0.13349668  0.75357631     0.15080
H3000       H  0.52204577  0.01552096  0.69887610     0.15080
C3001       C  0.97408747  0.03830975  0.69814344     0.36730
C3002       C  0.55489718  0.10630173  0.75816722     0.36640
N3003       N  0.95768556  0.02180663  0.68734221    -0.43610
N3004       N  0.56926082  0.12020703  0.77264413    -0.43610
C3005       C  0.89559983  0.98940824  0.74619732    -0.00020
C3006       C  0.87817123  0.96982801  0.73036004    -0.11900
C3007       C  0.88270255  0.92759900  0.72481585     0.02210
C3008       C  0.90446356  0.90383938  0.73662956    -0.00110
C3009       C  0.92189003  0.92282114  0.75320539    -0.11840
C3010       C  0.91782048  0.96650374  0.75754253     0.02100
H3011       H  0.86162237  0.98875723  0.72149858     0.15080
H3012       H  0.93834413  0.90361867  0.76267017     0.15080
C3013       C  0.93645329  0.98758163  0.77312030     0.36730
C3014       C  0.86491102  0.90922203  0.70694125     0.36640
N3015       N  0.95121810  0.00498042  0.78550442    -0.43610
N3016       N  0.85091098  0.89456518  0.69241091    -0.43610
C3017       C  0.89151401  0.40081828  0.73623467    -0.00020
C3018       C  0.91555514  0.42194102  0.73271029    -0.11900
C3019       C  0.91829034  0.46852618  0.73192938     0.02210
C3020       C  0.89661128  0.49473549  0.73476913    -0.00110
C3021       C  0.87269886  0.47348080  0.73826572    -0.11840
C3022       C  0.86995936  0.42728472  0.73858237     0.02100
H3023       H  0.93222915  0.40195193  0.73051916     0.15080
H3024       H  0.85581405  0.49344412  0.73970557     0.15080
C3025       C  0.84446834  0.40916033  0.73860774     0.36730
C3026       C  0.94351852  0.48828850  0.72874419     0.36640
N3027       N  0.82370064  0.39612025  0.73787957    -0.43610
N3028       N  0.96369602  0.50421560  0.72613234    -0.43610
C3029       C  0.74043623  0.34111893  0.73230004    -0.00020
C3030       C  0.74220620  0.31247380  0.71344892    -0.11900
C3031       C  0.76484286  0.29006452  0.71106478     0.02210
C3032       C  0.78605736  0.29483183  0.72878713    -0.00110
C3033       C  0.78380218  0.32211956  0.74828158    -0.11840
C3034       C  0.76188926  0.34665489  0.74951952     0.02100
H3035       H  0.72594505  0.30790419  0.70016284     0.15080
H3036       H  0.79951441  0.32529576  0.76253122     0.15080
C3037       C  0.76316385  0.37826456  0.76800737     0.36730
C3038       C  0.76510879  0.26253792  0.69033115     0.36640
N3039       N  0.76515160  0.40339235  0.78283026    -0.43610
N3040       N  0.76497833  0.24081791  0.67354086    -0.43610
C3041       C  0.96008066  0.66565272  0.88836510    -0.00020
C3042       C  0.93623016  0.65215385  0.87908290    -0.11900
C3043       C  0.92343751  0.67701310  0.85615268     0.02210
C3044       C  0.93333476  0.71854109  0.84246453    -0.00110
C3045       C  0.95647208  0.73394538  0.85282038    -0.11840
C3046       C  0.96994762  0.70798369  0.87535910     0.02100
H3047       H  0.92833084  0.61969495  0.88836369     0.15080
H3048       H  0.96489885  0.76504122  0.84214677     0.15080
C3049       C  0.99411195  0.72510594  0.88391196     0.36730
C3050       C  0.90293909  0.65400715  0.84482157     0.36640
N3051       N  0.51354868  0.73883184  0.89060665    -0.43610
N3052       N  0.88729750  0.63231619  0.83678466    -0.43610
C3053       C  0.56318693  0.52425158  0.87927548    -0.00020
C3054       C  0.54573011  0.50525747  0.86235665    -0.11900
C3055       C  0.55397400  0.48015764  0.84288682     0.02210
C3056       C  0.58023925  0.47171735  0.84039871    -0.00110
C3057       C  0.59757792  0.49062279  0.85748324    -0.11840
C3058       C  0.58942530  0.51612042  0.87657404     0.02100
H3059       H  0.52540695  0.50853910  0.86510865     0.15080
H3060       H  0.61792914  0.48717351  0.85503783     0.15080
C3061       C  0.60850164  0.53340813  0.89348989     0.36730
C3062       C  0.53510159  0.46366923  0.82548296     0.36640
N3063       N  0.62392652  0.54742249  0.90682121    -0.43610
N3064       N  0.51987259  0.45036714  0.81161470    -0.43610
C3065       C  0.92631408  0.18415648  0.84053855    -0.00020
C3066       C  0.95122166  0.19470181  0.84870200    -0.11900
C3067       C  0.96714492  0.16202469  0.86447953     0.02210
C3068       C  0.95731348  0.11931144  0.87691115    -0.00110
C3069       C  0.93237191  0.10873317  0.86980979    -0.11840
C3070       C  0.91772693  0.13917466  0.85037783     0.02100
H3071       H  0.95939060  0.22730047  0.84012393     0.15080
H3072       H  0.92471114  0.07580409  0.87853450     0.15080
C3073       C  0.89786603  0.11838677  0.83698508     0.36730
C3074       C  0.99412675  0.17218216  0.86603527     0.36640
N3075       N  0.88401302  0.09646847  0.82668012    -0.43610
N3076       N  0.51575285  0.18045132  0.86631919    -0.43610
C3077       C  0.55192501  0.97578457  0.87972826    -0.00020
C3078       C  0.56385679  0.00964592  0.86128794    -0.11900
C3079       C  0.57589163  0.00049054  0.83834383     0.02210
C3080       C  0.57434015  0.95662054  0.83128706    -0.00110
C3081       C  0.56250273  0.92232460  0.84996533    -0.11840
C3082       C  0.55256877  0.93116827  0.87460034     0.02100
H3083       H  0.56489702  0.04357392  0.86560027     0.15080
H3084       H  0.56218707  0.88818600  0.84608170     0.15080
C3085       C  0.54718170  0.89327025  0.89587714     0.36730
C3086       C  0.59161020  0.03664132  0.82413160     0.36640
N3087       N  0.54443790  0.86216036  0.91307610    -0.43610
N3088       N  0.60448406  0.06549807  0.81328014    -0.43610
C3089       C  0.51272525  0.83898748  0.97420793    -0.00020
C3090       C  0.52439211  0.80790727  0.99580140    -0.11900
C3091       C  0.52413639  0.76153812  0.99605791     0.02210
C3092       C  0.51222136  0.74467309  0.97429061    -0.00110
C3093       C  0.50102914  0.77507735  0.95236841    -0.11840
C3094       C  0.50105820  0.82179942  0.95212177     0.02100
H3095       H  0.53362054  0.81953581  0.01298950     0.15080
H3096       H  0.99151601  0.76213948  0.93576548     0.15080
C3097       C  0.48942512  0.85083618  0.92859703     0.36730
C3098       C  0.53649054  0.73190979  0.01896459     0.36640
N3099       N  0.98060609  0.87401493  0.90933306    -0.43610
N3100       N  0.54645240  0.70843072  0.03734536    -0.43610
C3101       C  0.51604081  0.32714977  0.01767282    -0.00020
C3102       C  0.53826220  0.30921931  0.00923386    -0.11900
C3103       C  0.53856080  0.26556108  0.00445903     0.02210
C3104       C  0.51732676  0.23741566  0.01111603    -0.00110
C3105       C  0.99542407  0.25420174  0.02107317    -0.11840
C3106       C  0.99431039  0.29949207  0.02375273     0.02100
H3107       H  0.55456184  0.33107191  0.00345387     0.15080
H3108       H  0.97876921  0.23266159  0.02524217     0.15080
C3109       C  0.97016932  0.31735946  0.03004314     0.36730
C3110       C  0.55878883  0.25390510  0.98820405     0.36640
N3111       N  0.95054303  0.33087441  0.03487261    -0.43610
N3112       N  0.57442698  0.24731299  0.97361743    -0.43610
C3113       C  0.82689404  0.70256740  0.83154803    -0.00020
C3114       C  0.83757699  0.68968440  0.85818369    -0.11900
C3115       C  0.82693540  0.70378646  0.88085430     0.02210
C3116       C  0.80474502  0.73102516  0.87749958    -0.00110
C3117       C  0.79329913  0.74221963  0.85117688    -0.11840
C3118       C  0.80431084  0.72903483  0.82842039     0.02100
H3119       H  0.85506895  0.67053001  0.86133914     0.15080
H3120       H  0.77616387  0.76280257  0.84817294     0.15080
C3121       C  0.79225723  0.74391877  0.80181023     0.36730
C3122       C  0.83919236  0.68971980  0.90745973     0.36640
N3123       N  0.78236313  0.75564989  0.78057052    -0.43610
N3124       N  0.84902332  0.67825080  0.92877147    -0.43610
C3125       C  0.70389670  0.86290322  0.86966455    -0.00020
C3126       C  0.67737700  0.86075284  0.86572906    -0.11900
C3127       C  0.66351375  0.89667271  0.84949409     0.02210
C3128       C  0.67616177  0.93653804  0.83645585    -0.00110
C3129       C  0.70289419  0.93836757  0.84089443    -0.11840
C3130       C  0.71664301  0.90219616  0.85643239     0.02100
H3131       H  0.66713396  0.83235410  0.87729240     0.15080
H3132       H  0.71348133  0.96796569  0.83140167     0.15080
C3133       C  0.74394874  0.90755099  0.86022667     0.36730
C3134       C  0.63635411  0.89118785  0.84903724     0.36640
N3135       N  0.76575383  0.91206874  0.86340735    -0.43610
N3136       N  0.61495097  0.88237276  0.85136617    -0.43610
C3137       C  0.65685822  0.70022829  0.95416618    -0.00020
C3138       C  0.65693843  0.65317619  0.95734547    -0.11900
C3139       C  0.63424373  0.62858797  0.96109306     0.02210
C3140       C  0.61086856  0.65138732  0.96113751    -0.00110
C3141       C  0.61045133  0.69868519  0.95622924    -0.11840
C3142       C  0.63331250  0.72326941  0.95319843     0.02100
H3143       H  0.67492933  0.63533283  0.95944361     0.15080
H3144       H  0.59244011  0.71622338  0.95632327     0.15080
C3145       C  0.63224533  0.77176102  0.95057126     0.36730
C3146       C  0.63552426  0.57989774  0.96595583     0.36640
N3147       N  0.63127421  0.81056112  0.94861349    -0.43610
N3148       N  0.63652396  0.54088432  0.96995294    -0.43610
C3149       C  0.85779187  0.90297244  0.98757471    -0.00020
C3150       C  0.87436726  0.89299671  0.96754058    -0.11900
C3151       C  0.89864561  0.91333816  0.96314189     0.02210
C3152       C  0.90713989  0.94520420  0.97877339    -0.00110
C3153       C  0.89035177  0.95485077  0.99890678    -0.11840
C3154       C  0.86629997  0.93410021  0.00346887     0.02100
H3155       H  0.86824066  0.86905486  0.95495104     0.15080
H3156       H  0.89581586  0.97925888  0.01142887     0.15080
C3157       C  0.85032789  0.94697678  0.02374206     0.36730
C3158       C  0.91424961  0.90037792  0.94263997     0.36640
N3159       N  0.83754006  0.95737120  0.03999673    -0.43610
N3160       N  0.92648721  0.88959882  0.92608170    -0.43610
C3161       C  0.81221431  0.23122878  0.88830042    -0.00020
C3162       C  0.80760710  0.18667790  0.88412745    -0.11900
C3163       C  0.81766648  0.17089853  0.86158891     0.02210
C3164       C  0.83203708  0.20026400  0.84231209    -0.00110
C3165       C  0.83817175  0.24333974  0.84798074    -0.11840
C3166       C  0.82841116  0.25904160  0.87016335     0.02100
H3167       H  0.79595599  0.16420920  0.89839405     0.15080
H3168       H  0.85010115  0.26617674  0.83419123     0.15080
C3169       C  0.83409530  0.30522571  0.87230241     0.36730
C3170       C  0.81274629  0.12506283  0.85856003     0.36640
N3171       N  0.83890006  0.34236114  0.87337069    -0.43610
N3172       N  0.80908488  0.08804389  0.85635691    -0.43610
C3173       C  0.68223675  0.43719488  0.84441621    -0.00020
C3174       C  0.70896586  0.43772454  0.84932140    -0.11900
C3175       C  0.72196612  0.40133559  0.86572768     0.02210
C3176       C  0.70844134  0.36307602  0.87920352    -0.00110
C3177       C  0.68182412  0.36274855  0.87517476    -0.11840
C3178       C  0.66872478  0.39885538  0.85812862     0.02100
H3179       H  0.72012641  0.46619853  0.83928587     0.15080
H3180       H  0.67095239  0.33545016  0.88696553     0.15080
C3181       C  0.64139609  0.39521282  0.85675158     0.36730
C3182       C  0.74934635  0.40529240  0.86972751     0.36640
N3183       N  0.61958733  0.38924257  0.85771052    -0.43610
N3184       N  0.77122237  0.40892622  0.87288020    -0.43610
C3185       C  0.66546510  0.18463317  0.97650563    -0.00020
C3186       C  0.66612362  0.13764715  0.97951196    -0.11900
C3187       C  0.64478700  0.11148305  0.98882676     0.02210
C3188       C  0.62226502  0.13232485  0.99552465    -0.00110
C3189       C  0.62215789  0.17901663  0.99363812    -0.11840
C3190       C  0.64298751  0.20537951  0.98322037     0.02100
H3191       H  0.68373652  0.12121033  0.97600404     0.15080
H3192       H  0.60533747  0.19489015  0.99935174     0.15080
C3193       C  0.64091208  0.25395232  0.97942494     0.36730
C3194       C  0.64696855  0.06302306  0.99274485     0.36640
N3195       N  0.63913692  0.29284131  0.97613316    -0.43610
N3196       N  0.64917714  0.02421297  0.99613565    -0.43610
C3197       C  0.76423847  0.49874609  0.99780886    -0.00020
C3198       C  0.74400199  0.52239654  0.98186488    -0.11900
C3199       C  0.74585220  0.56821088  0.97033666     0.02210
C3200       C  0.76747066  0.59277694  0.97638690    -0.00110
C3201       C  0.78786713  0.56912128  0.99216043    -0.11840
C3202       C  0.78645989  0.52274355  0.00276185     0.02100
H3203       H  0.72701950  0.50423674  0.97699009     0.15080
H3204       H  0.80492323  0.58724262  0.99682905     0.15080
C3205       C  0.80833782  0.50083919  0.01788160     0.36730
C3206       C  0.72586741  0.58820098  0.95135679     0.36640
N3207       N  0.82604168  0.48400382  0.03007269    -0.43610
N3208       N  0.71026137  0.60345185  0.93534936    -0.43610
C3209       C  0.76567122  0.99590679  0.99309638    -0.00020
C3210       C  0.74868905  0.01945908  0.00633105    -0.11900
C3211       C  0.74870220  0.06674119  0.00119253     0.02210
C3212       C  0.76592568  0.09096190  0.98251542    -0.00110
C3213       C  0.78337693  0.06748458  0.96990176    -0.11840
C3214       C  0.78321056  0.02028087  0.97481676     0.02100
H3215       H  0.73479978  0.00098135  0.01985988     0.15080
H3216       H  0.79724039  0.08604993  0.95636678     0.15080
C3217       C  0.80117929  0.99766150  0.96068506     0.36730
C3218       C  0.73081827  0.08968140  0.01528312     0.36640
N3219       N  0.81564460  0.98015814  0.94908508    -0.43610
N3220       N  0.71640394  0.10774669  0.02664335    -0.43610
C3221       C  0.86378316  0.39681700  0.00176148    -0.00020
C3222       C  0.87283490  0.41102983  0.02548146    -0.11900
C3223       C  0.89792997  0.42620305  0.02733474     0.02210
C3224       C  0.91566986  0.41867618  0.00807632    -0.00110
C3225       C  0.90716942  0.40045810  0.98565003    -0.11840
C3226       C  0.88123835  0.39383510  0.98098239     0.02100
H3227       H  0.85960027  0.41548872  0.04102516     0.15080
H3228       H  0.92038978  0.39797431  0.96964730     0.15080
C3229       C  0.87352976  0.39011908  0.95343248     0.36730
C3230       C  0.90237341  0.46013406  0.04352691     0.36640
N3231       N  0.86820076  0.38885688  0.93088061    -0.43610
N3232       N  0.90438683  0.49032154  0.05455788    -0.43610
C3233       C  0.68701232  0.69154448  0.13210968    -0.00020
C3234       C  0.71321156  0.68594078  0.12782931    -0.11900
C3235       C  0.72674668  0.71630035  0.10754773     0.02210
C3236       C  0.71467076  0.75552865  0.09177842    -0.00110
C3237       C  0.68833640  0.76019953  0.09628432    -0.11840
C3238       C  0.67470974  0.72898762  0.11533333     0.02100
H3239       H  0.72337325  0.65825499  0.14077922     0.15080
H3240       H  0.67784983  0.78847120  0.08431313     0.15080
C3241       C  0.64763891  0.73639050  0.11734969     0.36730
C3242       C  0.75265277  0.70468194  0.10320871     0.36640
N3243       N  0.62592087  0.74221618  0.11866780    -0.43610
N3244       N  0.77334582  0.69328776  0.10076839    -0.43610
C3245       C  0.57661728  0.53343332  0.15083673    -0.00020
C3246       C  0.55084434  0.54355058  0.14334756    -0.11900
C3247       C  0.53807674  0.52573298  0.12243586     0.02210
C3248       C  0.55104351  0.49658092  0.10826976    -0.00110
C3249       C  0.57581655  0.48251655  0.11796781    -0.11840
C3250       C  0.58855144  0.50026734  0.13885911     0.02100
H3251       H  0.54085212  0.56753754  0.15287742     0.15080
H3252       H  0.58604830  0.45960009  0.10782772     0.15080
C3253       C  0.61408091  0.48420317  0.14699369     0.36730
C3254       C  0.01242897  0.54157896  0.11528983     0.36640
N3255       N  0.63454405  0.47126391  0.15349258    -0.43610
N3256       N  0.99202329  0.55630829  0.11145782    -0.43610
C3257       C  0.68152229  0.59283545  0.35154512    -0.00020
C3258       C  0.66703934  0.56633697  0.37214099    -0.11900
C3259       C  0.67885399  0.53517481  0.39381124     0.02210
C3260       C  0.70520568  0.52517092  0.39346924    -0.00110
C3261       C  0.71892119  0.54726629  0.37124179    -0.11840
C3262       C  0.70818283  0.58279577  0.35200778     0.02100
H3263       H  0.64669104  0.57086614  0.37214112     0.15080
H3264       H  0.73944928  0.54191504  0.37145725     0.15080
C3265       C  0.72625220  0.61092790  0.33529836     0.36730
C3266       C  0.66415215  0.51716841  0.41743870     0.36640
N3267       N  0.74166645  0.63323620  0.32317586    -0.43610
N3268       N  0.65242817  0.50336089  0.43653080    -0.43610
C3269       C  0.58069819  0.59366490  0.36055675    -0.00020
C3270       C  0.59822147  0.61539840  0.37561607    -0.11900
C3271       C  0.59097966  0.63756084  0.39635549     0.02210
C3272       C  0.56499466  0.63854884  0.40348013    -0.00110
C3273       C  0.54749708  0.61278579  0.39028692    -0.11840
C3274       C  0.55506590  0.59098700  0.36887427     0.02100
H3275       H  0.61744543  0.62095616  0.36855049     0.15080
H3276       H  0.52756174  0.61157061  0.39561662     0.15080
C3277       C  0.53604572  0.56796674  0.35496924     0.36730
C3278       C  0.61103814  0.66181350  0.40796345     0.36640
N3279       N  0.02081149  0.54894699  0.34408716    -0.43610
N3280       N  0.62774559  0.68111436  0.41632408    -0.43610
C3281       C  0.73012991  0.25131308  0.10261303    -0.00020
C3282       C  0.73553775  0.26226972  0.12804029    -0.11900
C3283       C  0.72414119  0.23824926  0.15171063     0.02210
C3284       C  0.71116382  0.19600762  0.15170105    -0.00110
C3285       C  0.70666636  0.18414626  0.12630268    -0.11840
C3286       C  0.71359998  0.21316031  0.10206473     0.02100
H3287       H  0.74574759  0.29348127  0.12883013     0.15080
H3288       H  0.69515520  0.15448067  0.12509065     0.15080
C3289       C  0.70070654  0.20407135  0.07769663     0.36730
C3290       C  0.72169735  0.26432001  0.17282496     0.36640
N3291       N  0.68981921  0.19441559  0.05905682    -0.43610
N3292       N  0.71963172  0.28965684  0.18732936    -0.43610
C3293       C  0.57908188  0.01442676  0.10093217    -0.00020
C3294       C  0.60584408  0.02135904  0.10154622    -0.11900
C3295       C  0.61834774  0.04054921  0.12234640     0.02210
C3296       C  0.60422179  0.05197323  0.14382395    -0.00110
C3297       C  0.57807779  0.04281449  0.14400474    -0.11840
C3298       C  0.56545727  0.02633023  0.12276362     0.02100
H3299       H  0.61665340  0.01617873  0.08421298     0.15080
H3300       H  0.56688611  0.05140315  0.16025066     0.15080
C3301       C  0.53815744  0.02984535  0.12292322     0.36730
C3302       C  0.64500819  0.05260822  0.11956411     0.36640
N3303       N  0.51683710  0.03633338  0.12601542    -0.43610
N3304       N  0.66629453  0.06291454  0.11730579    -0.43610
C3305       C  0.63163654  0.82633198  0.25507859    -0.00020
C3306       C  0.64762920  0.84579025  0.27285595    -0.11900
C3307       C  0.65094363  0.89311599  0.26904590     0.02210
C3308       C  0.63823516  0.92235583  0.24707539    -0.00110
C3309       C  0.62183549  0.90297325  0.22966104    -0.11840
C3310       C  0.61859366  0.85574751  0.23334128     0.02100
H3311       H  0.65832700  0.82397611  0.28911781     0.15080
H3312       H  0.61116264  0.92483407  0.21339024     0.15080
C3313       C  0.60120583  0.83815133  0.21478876     0.36730
C3314       C  0.66812849  0.91104678  0.28756445     0.36640
N3315       N  0.58704470  0.82393345  0.20020881    -0.43610
N3316       N  0.68202949  0.92542717  0.30230401    -0.43610
C3317       C  0.64304722  0.33240586  0.25930726    -0.00020
C3318       C  0.61960885  0.34818947  0.26641256    -0.11900
C3319       C  0.61311952  0.39369575  0.25874581     0.02210
C3320       C  0.63069049  0.42428265  0.24402524    -0.00110
C3321       C  0.65509604  0.40874709  0.23947857    -0.11840
C3322       C  0.66145305  0.36343956  0.24706450     0.02100
H3323       H  0.60543364  0.32437938  0.27598180     0.15080
H3324       H  0.66946077  0.43201592  0.22980307     0.15080
C3325       C  0.68704645  0.35031640  0.24194009     0.36730
C3326       C  0.58778206  0.40656892  0.26495111     0.36640
N3327       N  0.70784989  0.34168455  0.23768359    -0.43610
N3328       N  0.56727338  0.41556591  0.27005182    -0.43610
C3329       C  0.67798418  0.10150423  0.35516563    -0.00020
C3330       C  0.70059345  0.07974643  0.34988253    -0.11900
C3331       C  0.70975904  0.04026758  0.36667690     0.02210
C3332       C  0.69921612  0.02553402  0.39214904    -0.00110
C3333       C  0.67639819  0.04630991  0.39787524    -0.11840
C3334       C  0.66602372  0.08437052  0.37991285     0.02100
H3335       H  0.71136447  0.09300578  0.33210081     0.15080
H3336       H  0.66903216  0.03727094  0.41829928     0.15080
C3337       C  0.64726896  0.11051037  0.39039944     0.36730
C3338       C  0.73224135  0.01841123  0.35917648     0.36640
N3339       N  0.63338009  0.13154634  0.40045513    -0.43610
N3340       N  0.74999326  0.99987864  0.35356634    -0.43610
C3341       C  0.58236665  0.12937957  0.35359095    -0.00020
C3342       C  0.56192683  0.10672264  0.36795295    -0.11900
C3343       C  0.55078662  0.12365746  0.38960420     0.02210
C3344       C  0.56151094  0.16197740  0.39882072    -0.00110
C3345       C  0.58212166  0.18345989  0.38476065    -0.11840
C3346       C  0.59153017  0.16954155  0.36193436     0.02100
H3347       H  0.55319928  0.07826580  0.36075260     0.15080
H3348       H  0.59007234  0.21380866  0.39047775     0.15080
C3349       C  0.60957104  0.20031266  0.34683450     0.36730
C3350       C  0.52711634  0.10352421  0.39985119     0.36640
N3351       N  0.62359976  0.22673359  0.33553395    -0.43610
N3352       N  0.50765697  0.08780129  0.40693776    -0.43610
C3353       C  0.84769047  0.80238812  0.13837697    -0.00020
C3354       C  0.82098528  0.80182271  0.13790123    -0.11900
C3355       C  0.80694297  0.78724819  0.11710672     0.02210
C3356       C  0.81948613  0.77024794  0.09639803    -0.00110
C3357       C  0.84622800  0.76658090  0.09818395    -0.11840
C3358       C  0.86046066  0.78289548  0.11876099     0.02100
H3359       H  0.81075311  0.81529321  0.15315298     0.15080
H3360       H  0.85614181  0.75527282  0.08194622     0.15080
C3361       C  0.88798635  0.78238660  0.11776395     0.36730
C3362       C  0.77985662  0.79605651  0.11635345     0.36640
N3363       N  0.91005651  0.78209477  0.11689644    -0.43610
N3364       N  0.75853199  0.80518354  0.11737346    -0.43610
C3365       C  0.97642049  0.00971550  0.09292745    -0.00020
C3366       C  0.98834551  0.96740092  0.10264589    -0.11900
C3367       C  0.97626714  0.93273509  0.12143989     0.02210
C3368       C  0.95116923  0.93862347  0.12979880    -0.00110
C3369       C  0.93866864  0.97935528  0.11809006    -0.11840
C3370       C  0.95105062  0.01482825  0.10099040     0.02100
H3371       H  0.50679683  0.96149218  0.09598379     0.15080
H3372       H  0.91962595  0.98531557  0.12464455     0.15080
C3373       C  0.93741376  0.05708961  0.09310789     0.36730
C3374       C  0.99015337  0.89192017  0.13235476     0.36640
N3375       N  0.92654415  0.09095235  0.08687200    -0.43610
N3376       N  0.50043283  0.85899699  0.14113722    -0.43610
C3377       C  0.98737607  0.75277416  0.23550257    -0.00020
C3378       C  0.50928964  0.77778020  0.23680788    -0.11900
C3379       C  0.53044346  0.75864888  0.25216188     0.02210
C3380       C  0.53096483  0.71221883  0.26236381    -0.00110
C3381       C  0.00892238  0.68643898  0.26113856    -0.11840
C3382       C  0.98661617  0.70700360  0.24852464     0.02100
H3383       H  0.50919516  0.81396406  0.22907545     0.15080
H3384       H  0.00918549  0.65027628  0.26879581     0.15080
C3385       C  0.96303334  0.68153574  0.25096017     0.36730
C3386       C  0.55104590  0.78739186  0.25835618     0.36640
N3387       N  0.94427208  0.66083547  0.25363416    -0.43610
N3388       N  0.56711609  0.81045566  0.26440340    -0.43610
C3389       C  0.74760598  0.03293397  0.24380862    -0.00020
C3390       C  0.75197332  0.00611508  0.22453029    -0.11900
C3391       C  0.77483148  0.98243222  0.22480339     0.02210
C3392       C  0.79491115  0.98608166  0.24452029    -0.00110
C3393       C  0.79020731  0.01151905  0.26448842    -0.11840
C3394       C  0.76691064  0.03428162  0.26459332     0.02100
H3395       H  0.73732921  0.00335869  0.20900354     0.15080
H3396       H  0.80480618  0.01377685  0.28013922     0.15080
C3397       C  0.76361934  0.05731660  0.28704928     0.36730
C3398       C  0.77617078  0.95412332  0.20452943     0.36640
N3399       N  0.76169643  0.07520038  0.30543439    -0.43610
N3400       N  0.77659977  0.93194935  0.18799784    -0.43610
C3401       C  0.82590361  0.87791411  0.34307522    -0.00020
C3402       C  0.81942906  0.92413645  0.34043615    -0.11900
C3403       C  0.81394824  0.94336348  0.36292930     0.02210
C3404       C  0.81130189  0.91581995  0.38875843    -0.00110
C3405       C  0.81406403  0.86848313  0.39102986    -0.11840
C3406       C  0.82199579  0.84955933  0.36857827     0.02100
H3407       H  0.82150065  0.94675776  0.32089426     0.15080
H3408       H  0.81121021  0.84656541  0.41061984     0.15080
C3409       C  0.82640776  0.80167934  0.37219844     0.36730
C3410       C  0.81229334  0.99198988  0.35905462     0.36640
N3411       N  0.82962428  0.76315753  0.37489987    -0.43610
N3412       N  0.81140046  0.03095105  0.35599261    -0.43610
C3413       C  0.93851392  0.84845457  0.34839592    -0.00020
C3414       C  0.92258644  0.82871694  0.36965256    -0.11900
C3415       C  0.93201299  0.79505325  0.39144864     0.02210
C3416       C  0.95687246  0.77672598  0.39093056    -0.00110
C3417       C  0.97151962  0.79290068  0.36831530    -0.11840
C3418       C  0.96388639  0.83072410  0.34895025     0.02100
H3419       H  0.90327582  0.84124845  0.37009955     0.15080
H3420       H  0.99109387  0.78105336  0.36833632     0.15080
C3421       C  0.98373631  0.85102579  0.33112373     0.36730
C3422       C  0.91689836  0.78306990  0.41545020     0.36640
N3423       N  0.00059753  0.86611920  0.31790045    -0.43610
N3424       N  0.90486231  0.77405970  0.43480566    -0.43610
C3425       C  0.84083093  0.28431081  0.15089071    -0.00020
C3426       C  0.85805602  0.28361898  0.12995536    -0.11900
C3427       C  0.85001392  0.27074051  0.10555831     0.02210
C3428       C  0.82466704  0.25596072  0.10240153    -0.00110
C3429       C  0.80827391  0.25211544  0.12434534    -0.11840
C3430       C  0.81584053  0.26720097  0.14822212     0.02100
H3431       H  0.87726135  0.29682875  0.13166241     0.15080
H3432       H  0.78857640  0.24196330  0.12163103     0.15080
C3433       C  0.79704744  0.26672136  0.16877802     0.36730
C3434       C  0.86719115  0.27809003  0.08302471     0.36640
N3435       N  0.78152255  0.26617271  0.18481190    -0.43610
N3436       N  0.88111272  0.28456666  0.06512510    -0.43610
C3437       C  0.95440987  0.48486875  0.09761115    -0.00020
C3438       C  0.93027243  0.49767233  0.10440514    -0.11900
C3439       C  0.91530627  0.46709952  0.12203342     0.02210
C3440       C  0.92605163  0.42621074  0.13684718    -0.00110
C3441       C  0.95034451  0.41401503  0.13110279    -0.11840
C3442       C  0.96417661  0.44167370  0.11113568     0.02100
H3443       H  0.92194086  0.52907273  0.09353213     0.15080
H3444       H  0.95876200  0.38309564  0.14263565     0.15080
C3445       C  0.98728615  0.42167918  0.10385673     0.36730
C3446       C  0.88859332  0.47739696  0.12428482     0.36640
N3447       N  0.50497172  0.40252837  0.09891462    -0.43610
N3448       N  0.86709702  0.48488750  0.12590648    -0.43610
C3449       C  0.98690020  0.27598479  0.24312010    -0.00020
C3450       C  0.50890678  0.30379496  0.23994105    -0.11900
C3451       C  0.53382905  0.28500633  0.24123683     0.02210
C3452       C  0.53748155  0.23769489  0.24772309    -0.00110
C3453       C  0.51536047  0.21047174  0.25075940    -0.11840
C3454       C  0.99064977  0.22865220  0.24787109     0.02100
H3455       H  0.00688081  0.33970895  0.23576230     0.15080
H3456       H  0.51755792  0.17406662  0.25461381     0.15080
C3457       C  0.96933772  0.19797169  0.24979094     0.36730
C3458       C  0.55503741  0.31474229  0.23314803     0.36640
N3459       N  0.95275372  0.17226165  0.25080238    -0.43610
N3460       N  0.57182186  0.33859067  0.22567578    -0.43610
C3461       C  0.86956994  0.58116845  0.24126265    -0.00020
C3462       C  0.88829540  0.60306125  0.22368583    -0.11900
C3463       C  0.89059889  0.65022565  0.21779912     0.02210
C3464       C  0.87422881  0.67679336  0.23015877    -0.00110
C3465       C  0.85402835  0.65479116  0.24579738    -0.11840
C3466       C  0.85153404  0.60760039  0.25124134     0.02100
H3467       H  0.90150818  0.58308365  0.21466914     0.15080
H3468       H  0.84028555  0.67445253  0.25437016     0.15080
C3469       C  0.82971087  0.58729766  0.26587631     0.36730
C3470       C  0.91035715  0.66989497  0.19966560     0.36640
N3471       N  0.81202986  0.57106866  0.27725896    -0.43610
N3472       N  0.92618936  0.68555430  0.18509968    -0.43610
C3473       C  0.89169205  0.07668081  0.25232853    -0.00020
C3474       C  0.90354791  0.09584157  0.27300515    -0.11900
C3475       C  0.90001929  0.14146583  0.27354843     0.02210
C3476       C  0.88519877  0.16838616  0.25258677    -0.00110
C3477       C  0.87224471  0.14870750  0.23280476    -0.11840
C3478       C  0.87484638  0.10269028  0.23300145     0.02100
H3479       H  0.91582224  0.07535779  0.28841329     0.15080
H3480       H  0.85978048  0.16915058  0.21756597     0.15080
C3481       C  0.85883855  0.08215083  0.21454596     0.36730
C3482       C  0.91274432  0.16050094  0.29492121     0.36640
N3483       N  0.84572422  0.06521909  0.20026768    -0.43610
N3484       N  0.92307551  0.17603111  0.31183153    -0.43610
C3485       C  0.77605852  0.48683192  0.24127842    -0.00020
C3486       C  0.76875122  0.50362513  0.21367507    -0.11900
C3487       C  0.74461735  0.52273209  0.20611832     0.02210
C3488       C  0.72695039  0.52578576  0.22629746    -0.00110
C3489       C  0.73457065  0.51124408  0.25397013    -0.11840
C3490       C  0.75882200  0.49205607  0.26162689     0.02100
H3491       H  0.78185588  0.50077021  0.19767892     0.15080
H3492       H  0.72124310  0.51371404  0.26970797     0.15080
C3493       C  0.76493509  0.47661757  0.29029777     0.36730
C3494       C  0.73867562  0.53979896  0.17754573     0.36640
N3495       N  0.76957898  0.46487342  0.31340862    -0.43610
N3496       N  0.73386829  0.55371142  0.15467622    -0.43610
C3497       C  0.82161526  0.35764174  0.35854239    -0.00020
C3498       C  0.84039384  0.36586808  0.37761877    -0.11900
C3499       C  0.83471656  0.38939920  0.39831568     0.02210
C3500       C  0.80925364  0.40336353  0.40115645    -0.00110
C3501       C  0.79002305  0.39114930  0.38348536    -0.11840
C3502       C  0.79605672  0.36909206  0.36214465     0.02100
H3503       H  0.86011368  0.35742513  0.37488126     0.15080
H3504       H  0.77033016  0.40051493  0.38559348     0.15080
C3505       C  0.77596082  0.36070482  0.34318414     0.36730
C3506       C  0.85551445  0.39699488  0.41664357     0.36640
N3507       N  0.75980256  0.35402953  0.32802890    -0.43610
N3508       N  0.87274507  0.40189915  0.43093790    -0.43610
C3509       C  0.91267849  0.36208535  0.35912547    -0.00020
C3510       C  0.92789529  0.38475140  0.37517699    -0.11900
C3511       C  0.94707687  0.36265091  0.39249217     0.02210
C3512       C  0.94963013  0.31402772  0.39767346    -0.00110
C3513       C  0.93308538  0.29052981  0.38267845    -0.11840
C3514       C  0.91552615  0.31426446  0.36279180     0.02100
H3515       H  0.92695412  0.42142413  0.37149926     0.15080
H3516       H  0.93461743  0.25411293  0.38551235     0.15080
C3517       C  0.90373826  0.28926826  0.34397496     0.36730
C3518       C  0.96475050  0.39336537  0.40246317     0.36640
N3519       N  0.89597231  0.26805674  0.32852720    -0.43610
N3520       N  0.97792266  0.42023071  0.40949303    -0.43610
loop_ 
_geom_bond_atom_site_label_1 
_geom_bond_atom_site_label_2 
_geom_bond_distance 
_geom_bond_site_symmetry_2 
_ccdc_geom_bond_type 
O1          Zr13   2.508       .  S
O1            C3   1.300       .  A
O2          Zr39   2.362       .  S
O2            C3   1.277       .  A
C3         C1737   1.468       .  S
O4          Zr16   2.455       .  S
O4            C6   1.287       .  A
O5          Zr40   2.503       .  S
O5            C6   1.300       .  A
C6         C1689   1.521       .  S
O7          Zr16   2.379       .  S
O7            C9   1.266       .  A
O8          Zr39   2.522       .  S
O8            C9   1.295       .  A
C9         C1749   1.487       .  S
O10         Zr13   2.420       .  S
O10          C12   1.284       .  A
O11         Zr40   2.426       .  S
O11          C12   1.288       .  A
C12        C1716   1.458       .  S
Zr13         O14   2.445       .  S
Zr13         O15   2.435       .  S
Zr13         O19   2.337       .  S
Zr13         O20   2.433       .  S
Zr13         O43   2.366       .  S
Zr13         O45   2.353       .  S
O14          H57   0.990       .  S
O15          H56   0.990       .  S
O15          H60   0.990       .  S
Zr16         O17   2.443       .  S
Zr16         O18   2.432       .  S
Zr16         O20   2.372       .  S
Zr16         O19   2.404       .  S
Zr16         O44   2.397       .  S
Zr16         O46   2.336       .  S
O17          H58   0.989       .  S
O17          H61   0.988       .  S
O18          H51   0.990       .  S
O19         Zr39   2.393       .  S
O20         Zr40   2.398       .  S
O20          H47   0.966       .  S
O21         Zr33   2.449       .  S
O21          C23   1.290       .  A
O22         Zr40   2.408       .  S
O22          C23   1.285       .  A
C23        C1665   1.478       .  S
O24         Zr36   2.402       .  S
O24          C26   1.276       .  A
O25         Zr39   2.467       .  S
O25          C26   1.295       .  A
C26        C1701   1.484       .  S
O27         Zr36   2.329       .  S
O27          C29   1.266       .  A
O28         Zr40   2.482       .  S
O28          C29   1.298       .  A
C29        C1680   1.459       .  S
O30         Zr33   2.409       .  S
O30          C32   1.283       .  A
O31         Zr39   2.494       .  S
O31          C32   1.300       .  A
C32        C1725   1.498       .  S
Zr33         O34   2.436       .  S
Zr33         O35   2.434       .  S
Zr33         O41   2.349       .  S
Zr33         O42   2.366       .  S
Zr33         O45   2.360       .  S
Zr33         O43   2.360       .  S
O34          H54   0.990       .  S
O34          H59   0.990       .  S
O35          H55   0.988       .  S
Zr36         O37   2.436       .  S
Zr36         O38   2.434       .  S
Zr36         O42   2.342       .  S
Zr36         O41   2.388       .  S
Zr36         O46   2.375       .  S
Zr36         O44   2.342       .  S
O37          H53   0.990       .  S
O38          H52   0.990       .  S
O38          H62   0.989       .  S
Zr39         O42   2.369       .  S
Zr39         O44   2.409       .  S
Zr39         O45   2.398       .  S
Zr40         O41   2.400       .  S
Zr40         O43   2.411       .  S
Zr40         O46   2.379       .  S
O41          H49   0.964       .  S
O44          H48   0.966       .  S
O45          H50   0.966       .  S
O63         Zr75   2.448   1_545  S
O63          C65   1.289       .  A
O64        Zr101   2.380   1_545  S
O64          C65   1.278       .  A
C65        C1713   1.460       .  S
O66         Zr78   2.462       .  S
O66          C68   1.294       .  A
O67        Zr102   2.386       .  S
O67          C68   1.278       .  A
C68        C1593   1.489       .  S
O69         Zr78   2.381       .  S
O69          C71   1.275       .  A
O70        Zr101   2.508       .  S
O70          C71   1.304       .  A
C71        C1632   1.496       .  S
O72         Zr75   2.359       .  S
O72          C74   1.273       .  A
O73        Zr102   2.563       .  S
O73          C74   1.313       .  A
C74        C1608   1.505       .  S
Zr75         O76   2.434   1_565  S
Zr75         O77   2.437       .  S
Zr75         O81   2.333       .  S
Zr75         O82   2.397       .  S
Zr75        O105   2.383       .  S
Zr75        O107   2.335       .  S
O76         H119   0.990       .  S
O77         H118   0.990   1_565  S
O77         H122   0.990   1_565  S
Zr78         O79   2.437       .  S
Zr78         O80   2.438       .  S
Zr78         O82   2.347       .  S
Zr78         O81   2.377       .  S
Zr78        O106   2.384       .  S
Zr78        O108   2.325       .  S
O79         H120   0.990       .  S
O79         H123   0.990       .  S
O80         H113   0.990       .  S
O81        Zr101   2.380       .  S
O82        Zr102   2.389       .  S
O82         H109   0.966       .  S
O83         Zr95   2.350       .  S
O83          C85   1.269       .  A
O84        Zr102   2.443       .  S
O84          C85   1.287       .  A
C85        C1617   1.449       .  S
O86         Zr98   2.587       .  S
O86          C88   1.314       .  A
O87        Zr101   2.300       .  S
O87          C88   1.268       .  A
C88        C1641   1.506       .  S
O89         Zr98   2.410       .  S
O89          C91   1.284       .  A
O90        Zr102   2.485       .  S
O90          C91   1.301       .  A
C91        C1704   1.497       .  S
O92         Zr95   2.365       .  S
O92          C94   1.258       .  A
O93        Zr101   2.548       .  S
O93          C94   1.300       .  A
C94        C1653   1.514       .  S
Zr95         O96   2.442       .  S
Zr95         O97   2.434       .  S
Zr95        O103   2.350       .  S
Zr95        O104   2.374       .  S
Zr95        O107   2.381       .  S
Zr95        O105   2.347       .  S
O96         H116   0.989       .  S
O96         H121   0.990       .  S
O97         H117   0.990       .  S
Zr98         O99   2.434       .  S
Zr98        O100   2.437       .  S
Zr98        O104   2.326       .  S
Zr98        O103   2.423       .  S
Zr98        O108   2.406       .  S
Zr98        O106   2.323       .  S
O99         H115   0.990       .  S
O100        H114   0.990       .  S
O100        H124   0.990       .  S
Zr101       O104   2.354       .  S
Zr101       O106   2.393       .  S
Zr101       O107   2.373       .  S
Zr102       O103   2.401       .  S
Zr102       O105   2.375       .  S
Zr102       O108   2.409       .  S
O103        H111   0.965       .  S
O106        H110   0.965       .  S
O107        H112   0.966       .  S
O125       Zr137   2.418       .  S
O125        C127   1.284       .  A
O126       Zr163   2.408       .  S
O126        C127   1.285       .  A
C127       C1557   1.461       .  S
O128       Zr140   2.481       .  S
O128        C130   1.298       .  A
O129       Zr164   2.419       .  S
O129        C130   1.285       .  A
C130       C1536   1.501       .  S
O131       Zr140   2.459       .  S
O131        C133   1.291       .  A
O132       Zr163   2.515       .  S
O132        C133   1.305       .  A
C133       C1692   1.518       .  S
O134       Zr137   2.375       .  S
O134        C136   1.263       .  A
O135       Zr164   2.556       .  S
O135        C136   1.310       .  A
C136       C1524   1.518       .  S
Zr137       O138   2.434       .  S
Zr137       O139   2.444       .  S
Zr137       O143   2.360       .  S
Zr137       O144   2.400       .  S
Zr137       O167   2.366       .  S
Zr137       O169   2.324       .  S
O138        H181   0.990       .  S
O139        H180   0.989       .  S
O139        H184   0.988       .  S
Zr140       O141   2.435       .  S
Zr140       O142   2.435       .  S
Zr140       O144   2.370       .  S
Zr140       O143   2.379       .  S
Zr140       O168   2.376       .  S
Zr140       O170   2.363       .  S
O141        H182   0.990       .  S
O141        H185   0.990       .  S
O142        H175   0.990       .  S
O143       Zr163   2.378       .  S
O144       Zr164   2.408       .  S
O144        H171   0.966       .  S
O145       Zr157   2.401       .  S
O145        C147   1.277       .  A
O146       Zr164   2.470       .  S
O146        C147   1.296       .  A
C147       C1629   1.497       .  S
O148       Zr160   2.587       .  S
O148        C150   1.314       .  A
O149       Zr163   2.331       .  S
O149        C150   1.261       .  A
C150       C1581   1.504       .  S
O151       Zr160   2.440   1_565  S
O151        C153   1.289       .  A
O152       Zr164   2.513   1_565  S
O152        C153   1.306       .  A
C153       C1548   1.500       .  S
O154       Zr157   2.385       .  S
O154        C156   1.257       .  A
O155       Zr163   2.566       .  S
O155        C156   1.299       .  A
C156       C1569   1.509       .  S
Zr157       O158   2.454       .  S
Zr157       O159   2.439       .  S
Zr157       O165   2.355       .  S
Zr157       O166   2.397       .  S
Zr157       O169   2.387       .  S
Zr157       O167   2.330       .  S
O158        H178   0.990       .  S
O158        H183   0.990       .  S
O159        H179   0.989       .  S
Zr160       O161   2.434   1_545  S
Zr160       O162   2.434       .  S
Zr160       O166   2.322       .  S
Zr160       O165   2.418       .  S
Zr160       O170   2.410       .  S
Zr160       O168   2.344       .  S
O161        H177   0.990   1_565  S
O162        H176   0.990       .  S
O162        H186   0.990       .  S
Zr163       O166   2.384       .  S
Zr163       O168   2.387       .  S
Zr163       O169   2.375       .  S
Zr164       O165   2.394       .  S
Zr164       O167   2.370       .  S
Zr164       O170   2.418       .  S
O165        H173   0.962       .  S
O168        H172   0.965       .  S
O169        H174   0.963       .  S
O187       Zr199   2.383       .  S
O187        C189   1.275       .  A
O188       Zr225   2.559       .  S
O188        C189   1.312       .  A
C189       C1473   1.517       .  S
O190       Zr202   2.380       .  S
O190        C192   1.265       .  A
O191       Zr226   2.544       .  S
O191        C192   1.299       .  A
C192       C1497   1.525       .  S
O193       Zr202   2.356       .  S
O193        C195   1.255       .  A
O194       Zr225   2.459       .  S
O194        C195   1.268       .  A
C195       C1728   1.490       .  S
O196       Zr199   2.417       .  S
O196        C198   1.282       .  A
O197       Zr226   2.493       .  S
O197        C198   1.300       .  A
C198       C1545   1.501       .  S
Zr199       O200   2.433       .  S
Zr199       O201   2.433       .  S
Zr199       O205   2.369       .  S
Zr199       O206   2.367       .  S
Zr199       O229   2.346       .  S
Zr199       O231   2.400       .  S
O200        H243   0.990       .  S
O201        H242   0.989       .  S
O201        H246   0.990       .  S
Zr202       O203   2.430       .  S
Zr202       O204   2.436       .  S
Zr202       O206   2.406       .  S
Zr202       O205   2.378       .  S
Zr202       O230   2.369       .  S
Zr202       O232   2.381       .  S
O203        H244   0.989       .  S
O203        H247   0.989       .  S
O204        H237   0.990       .  S
O205       Zr225   2.406       .  S
O206       Zr226   2.388       .  S
O206        H233   0.966       .  S
O207       Zr219   2.378       .  S
O207        C209   1.276       .  A
O208       Zr226   2.453       .  S
O208        C209   1.292       .  A
C209       C1620   1.450       .  S
O210       Zr222   2.422       .  S
O210        C212   1.279       .  A
O211       Zr225   2.420       .  S
O211        C212   1.288       .  A
C212       C1560   1.473       .  S
O213       Zr222   2.566       .  S
O213        C215   1.312       .  A
O214       Zr226   2.356       .  S
O214        C215   1.276       .  A
C215       C1509   1.499       .  S
O216       Zr219   2.457       .  S
O216        C218   1.290       .  A
O217       Zr225   2.439       .  S
O217        C218   1.288       .  A
C218       C1485   1.509       .  S
Zr219       O220   2.442       .  S
Zr219       O221   2.434       .  S
Zr219       O227   2.384       .  S
Zr219       O228   2.324       .  S
Zr219       O231   2.372       .  S
Zr219       O229   2.384       .  S
O220        H240   0.990       .  S
O220        H245   0.990       .  S
O221        H241   0.990       .  S
Zr222       O223   2.436       .  S
Zr222       O224   2.435       .  S
Zr222       O228   2.408       .  S
Zr222       O227   2.327       .  S
Zr222       O232   2.339       .  S
Zr222       O230   2.417       .  S
O223        H239   0.990       .  S
O224        H238   0.990       .  S
O224        H248   0.990       .  S
Zr225       O228   2.419       .  S
Zr225       O230   2.488       .  S
Zr225       O231   2.385       .  S
Zr226       O227   2.411       .  S
Zr226       O229   2.385       .  S
Zr226       O232   2.383       .  S
O227        H235   0.965       .  S
O230        H234   0.968       .  S
O231        H236   0.966       .  S
O249       Zr261   2.337       .  S
O249        C251   1.253       .  A
O250       Zr287   2.571       .  S
O250        C251   1.305       .  A
C251       C1521   1.512       .  S
O252       Zr264   2.412   1_556  S
O252        C254   1.283       .  A
O253       Zr288   2.460       .  S
O253        C254   1.295       .  A
C254       C1452   1.464       .  S
O255       Zr264   2.483       .  S
O255        C257   1.290       .  A
O256       Zr287   2.354       .  S
O256        C257   1.273       .  A
C257       C1668   1.460       .  S
O258       Zr261   2.368   1_556  S
O258        C260   1.273       .  A
O259       Zr288   2.468       .  S
O259        C260   1.295       .  A
C260       C1425   1.468       .  S
Zr261       O262   2.442       .  S
Zr261       O263   2.445       .  S
Zr261       O267   2.332       .  S
Zr261       O268   2.328       .  S
Zr261       O291   2.333   1_554  S
Zr261       O293   2.369       .  S
O262        H305   0.990       .  S
O263        H304   0.989       .  S
O263        H308   0.988       .  S
Zr264       O265   2.445       .  S
Zr264       O266   2.433       .  S
Zr264       O268   2.400       .  S
Zr264       O267   2.369       .  S
Zr264       O292   2.354       .  S
Zr264       O294   2.351   1_554  S
O265        H306   0.990       .  S
O265        H309   0.991       .  S
O266        H299   0.990       .  S
O267       Zr287   2.317       .  S
O268       Zr288   2.422   1_554  S
O268        H295   0.964       .  S
O269       Zr281   2.349       .  S
O269        C271   1.269       .  A
O270       Zr288   2.526       .  S
O270        C271   1.306       .  A
C271       C1416   1.481       .  S
O272       Zr284   2.403       .  S
O272        C274   1.275       .  A
O273       Zr287   2.433       .  S
O273        C274   1.287   1_554  A
C274       C1461   1.473   1_556  S
O275       Zr284   2.470       .  S
O275        C277   1.295       .  A
O276       Zr288   2.443       .  S
O276        C277   1.291       .  A
C277       C1401   1.500       .  S
O278       Zr281   2.361       .  S
O278        C280   1.272   1_556  A
O279       Zr287   2.470       .  S
O279        C280   1.294       .  A
C280       C1437   1.482   1_554  S
Zr281       O282   2.441       .  S
Zr281       O283   2.434       .  S
Zr281       O289   2.387       .  S
Zr281       O290   2.360       .  S
Zr281       O293   2.367   1_556  S
Zr281       O291   2.364       .  S
O282        H302   0.989       .  S
O282        H307   0.990       .  S
O283        H303   0.990       .  S
Zr284       O285   2.431       .  S
Zr284       O286   2.439       .  S
Zr284       O290   2.392       .  S
Zr284       O289   2.354       .  S
Zr284       O294   2.366       .  S
Zr284       O292   2.405   1_556  S
O285        H301   0.990       .  S
O286        H300   0.988       .  S
O286        H310   0.990       .  S
Zr287       O290   2.369   1_554  S
Zr287       O292   2.426       .  S
Zr287       O293   2.374       .  S
Zr288       O289   2.393       .  S
Zr288       O291   2.406       .  S
Zr288       O294   2.423       .  S
O289        H297   0.965       .  S
O292        H296   0.966       .  S
O293        H298   0.966       .  S
O311       Zr323   2.366       .  S
O311        C313   1.263       .  A
O312       Zr349   2.616       .  S
O312        C313   1.314       .  A
C313       C1476   1.543       .  S
O314       Zr326   2.374   1_556  S
O314        C316   1.277       .  A
O315       Zr350   2.485       .  S
O315        C316   1.301       .  A
C316       C1440   1.485       .  S
O317       Zr326   2.542       .  S
O317        C319   1.308       .  A
O318       Zr349   2.317       .  S
O318        C319   1.272       .  A
C319       C1596   1.474       .  S
O320       Zr323   2.410   1_556  S
O320        C322   1.280       .  A
O321       Zr350   2.435       .  S
O321        C322   1.288       .  A
C322       C1377   1.468       .  S
Zr323       O324   2.437       .  S
Zr323       O325   2.437       .  S
Zr323       O329   2.382       .  S
Zr323       O330   2.359   1_554  S
Zr323       O353   2.344   1_554  S
Zr323       O355   2.392       .  S
O324        H367   0.990       .  S
O325        H366   0.990   1_554  S
O325        H370   0.990       .  S
Zr326       O327   2.435       .  S
Zr326       O328   2.437       .  S
Zr326       O330   2.423   1_554  S
Zr326       O329   2.315       .  S
Zr326       O354   2.330       .  S
Zr326       O356   2.398   1_554  S
O327        H368   0.990       .  S
O327        H371   0.990       .  S
O328        H361   0.990       .  S
O329       Zr349   2.358       .  S
O330       Zr350   2.413       .  S
O330        H357   0.966       .  S
O331       Zr343   2.341       .  S
O331        C333   1.268       .  A
O332       Zr350   2.519       .  S
O332        C333   1.304       .  A
C333       C1365   1.477       .  S
O334       Zr346   2.379       .  S
O334        C336   1.273       .  A
O335       Zr349   2.538       .  S
O335        C336   1.307   1_554  A
C336       C1389   1.504       .  S
O337       Zr346   2.483       .  S
O337        C339   1.295       .  A
O338       Zr350   2.442       .  S
O338        C339   1.289       .  A
C339       C1356   1.505       .  S
O340       Zr343   2.415       .  S
O340        C342   1.281       .  A
O341       Zr349   2.435       .  S
O341        C342   1.289   1_554  A
C342       C1449   1.470       .  S
Zr343       O344   2.439       .  S
Zr343       O345   2.437       .  S
Zr343       O351   2.408       .  S
Zr343       O352   2.329       .  S
Zr343       O355   2.341   1_556  S
Zr343       O353   2.362       .  S
O344        H364   0.989       .  S
O344        H369   0.990       .  S
O345        H365   0.990       .  S
Zr346       O347   2.434       .  S
Zr346       O348   2.435       .  S
Zr346       O352   2.383       .  S
Zr346       O351   2.349       .  S
Zr346       O356   2.332       .  S
Zr346       O354   2.391   1_556  S
O347        H363   0.990       .  S
O348        H362   0.990       .  S
O348        H372   0.990       .  S
Zr349       O352   2.379   1_554  S
Zr349       O354   2.407       .  S
Zr349       O355   2.391       .  S
Zr350       O351   2.391       .  S
Zr350       O353   2.393       .  S
Zr350       O356   2.400       .  S
O351        H359   0.966       .  S
O354        H358   0.966       .  S
O355        H360   0.966       .  S
O373       Zr385   2.362       .  S
O373        C375   1.258       .  A
O374       Zr411   2.558       .  S
O374       C2135   1.302   1_455  A
C375       O2134   1.302       .  A
C375       C1605   1.517       .  S
O376       Zr388   2.445   1_556  S
O376        C378   1.293       .  A
O377       Zr412   2.452   1_455  S
O377        C378   1.294       .  A
C378       C1329   1.502       .  S
O379       Zr388   2.605       .  S
O379        C381   1.321   1_565  A
O380       Zr411   2.315       .  S
O380        C381   1.270       .  A
C381       C1533   1.498       .  S
O382       Zr385   2.365   1_566  S
O382        C384   1.272       .  A
O383      Zr2172   2.529       .  S
O383        C384   1.306       .  A
C384       C1392   1.519       .  S
Zr385       O386   2.434   1_545  S
Zr385       O387   2.435       .  S
Zr385       O415   2.341   1_554  S
Zr385       O417   2.369       .  S
Zr385      O2151   2.381       .  S
Zr385      O2152   2.358   1_544  S
O386        H429   0.990       .  S
O387        H428   0.990       .  S
O387        H432   0.990       .  S
Zr388       O389   2.433       .  S
Zr388       O390   2.437       .  S
Zr388       O392   2.430   1_454  S
Zr388       O391   2.312   1_565  S
Zr388       O416   2.332   1_565  S
Zr388       O418   2.400   1_554  S
O389        H430   0.990       .  S
O389        H433   0.990       .  S
O390        H423   0.990       .  S
O391       Zr411   2.360       .  S
O391      Zr2145   2.380   1_455  S
O392       Zr412   2.411       .  S
O392      Zr2145   2.358   1_566  S
O392       H2179   0.966   1_556  S
O393      Zr2165   2.336       .  S
O393        C395   1.269       .  A
O394      Zr2172   2.540   1_545  S
O394        C395   1.310       .  A
C395       C1308   1.488       .  S
O396       Zr408   2.385       .  S
O396        C398   1.277       .  A
O397       Zr411   2.499       .  S
O397        C398   1.301   1_554  A
C398       C1428   1.480       .  S
O399       Zr408   2.446       .  S
O399        C401   1.290   1_545  A
O400       Zr412   2.475   1_455  S
O400        C401   1.295       .  A
C401       C1317   1.502       .  S
O402       Zr405   2.433   1_455  S
O402        C404   1.285   1_556  A
O403       Zr411   2.404       .  S
O403        C404   1.283       .  A
C404       C1344   1.453       .  S
Zr405      O2153   2.336       .  S
Zr405       O406   2.431   1_655  S
Zr405      O2167   2.435       .  S
Zr405       O413   2.397   1_655  S
Zr405       O414   2.339   1_655  S
Zr405      O2177   2.335   1_556  S
Zr405      O2175   2.387       .  S
O406        H426   0.989       .  S
O406       H2191   0.990       .  S
O407      Zr2165   2.435       .  S
O407        H427   0.990       .  S
Zr408       O409   2.437       .  S
Zr408       O410   2.435       .  S
Zr408       O414   2.379       .  S
Zr408       O413   2.350       .  S
Zr408       O418   2.343   1_545  S
Zr408       O416   2.384   1_556  S
O409        H425   0.990       .  S
O410        H424   0.990   1_545  S
O410        H434   0.990       .  S
Zr411       O414   2.380   1_554  S
Zr411       O416   2.392       .  S
Zr411      O2177   2.382   1_455  S
Zr412      O2143   2.529       .  S
Zr412      O2154   2.540   1_565  S
Zr412       O413   2.404   1_665  S
Zr412       O418   2.420   1_655  S
Zr412      O2175   2.388   1_565  S
O413        H421   0.966       .  S
O415      Zr2165   2.387       .  S
O415      Zr2172   2.388   1_545  S
O416        H420   0.966       .  S
O417      Zr2165   2.335   1_554  S
O417      Zr2171   2.382       .  S
O417        H422   0.965       .  S
H419       O2152   0.966   1_554  S
H431       O2166   0.990       .  S
O435       Zr447   2.400       .  S
O435        C437   1.276       .  A
O436      Zr2233   2.525   1_455  S
O436        C437   1.297       .  A
C437       C1488   1.501       .  S
O438       Zr450   2.438   1_556  S
O438       C2200   1.289       .  A
O439       Zr474   2.465       .  S
O439        C440   1.296       .  A
C440       O2198   1.289   1_455  A
C440       C1332   1.479       .  S
O441       Zr450   2.577       .  S
O441        C443   1.313       .  A
O442       Zr473   2.268       .  S
O442        C443   1.253       .  A
C443       C1677   1.478       .  S
O444       Zr447   2.435   1_556  S
O444        C446   1.287       .  A
O445       Zr474   2.403       .  S
O445        C446   1.282       .  A
C446       C1380   1.465       .  S
Zr447       O448   2.436       .  S
Zr447       O449   2.435       .  S
Zr447       O453   2.382       .  S
Zr447       O454   2.349   1_554  S
Zr447       O477   2.360   1_554  S
Zr447       O479   2.381       .  S
O448        H491   0.990       .  S
O449        H490   0.990       .  S
O449        H494   0.990       .  S
Zr450       O451   2.436       .  S
Zr450       O452   2.436       .  S
Zr450       O478   2.323       .  S
Zr450       O480   2.399   1_554  S
Zr450      O2214   2.425   1_554  S
Zr450      O2213   2.335       .  S
O451        H495   0.990       .  S
O451       H2252   0.990       .  S
O452        H485   0.990       .  S
O453      Zr2210   2.335   1_455  S
O453      Zr2233   2.357   1_455  S
O454       Zr474   2.419       .  S
O454      Zr2210   2.425   1_456  S
O454        H481   0.965   1_556  S
O455       Zr467   2.360       .  S
O455        C457   1.271       .  A
O456       Zr474   2.557       .  S
O456        C457   1.313       .  A
C457       C1293   1.497       .  S
O458       Zr470   2.388       .  S
O458        C460   1.279   1_556  A
O459       Zr473   2.438       .  S
O459        C460   1.288       .  A
C460       C1464   1.457       .  S
O461       Zr470   2.451       .  S
O461        C463   1.290       .  A
O462       Zr474   2.419   1_655  S
O462       C2223   1.284       .  A
C463       O2222   1.284       .  A
C463       C1281   1.499       .  S
O464       Zr467   2.422       .  S
O464        C466   1.285   1_556  A
O465       Zr473   2.384       .  S
O465       C2226   1.277       .  A
C466       O2225   1.277       .  A
C466       C1341   1.454       .  S
Zr467       O468   2.437       .  S
Zr467       O469   2.435       .  S
Zr467       O475   2.398       .  S
Zr467       O479   2.350   1_556  S
Zr467       O477   2.375       .  S
Zr467      O2236   2.333   1_455  S
O468        H488   0.990       .  S
O468        H493   0.990       .  S
O469        H489   0.990       .  S
Zr470       O471   2.434       .  S
Zr470       O472   2.437       .  S
Zr470       O476   2.379       .  S
Zr470       O480   2.340       .  S
Zr470       O478   2.362   1_556  S
Zr470      O2235   2.346       .  S
O471        H487   0.990       .  S
O472        H486   0.990       .  S
O472        H496   0.990       .  S
Zr473      O2196   2.524       .  S
Zr473       O476   2.367   1_554  S
Zr473       O478   2.388       .  S
Zr473      O2213   2.357       .  S
Zr473      O2239   2.366       .  S
Zr474       O475   2.381       .  S
Zr474       O477   2.382       .  S
Zr474      O2240   2.403   1_455  S
O475      Zr2230   2.346   1_455  S
O475        H483   0.965       .  S
O476      Zr2227   2.333       .  S
O478        H482   0.965       .  S
O479      Zr2233   2.366   1_455  S
O479        H484   0.966       .  S
O480      Zr2234   2.403       .  S
H492       O2211   0.990   1_455  S
O497       Zr509   2.572       .  S
O497        C499   1.308       .  A
O498       Zr535   2.336       .  S
O498        C499   1.272       .  A
C499       C1404   1.506       .  S
O500       Zr512   2.415       .  S
O500        C502   1.282       .  A
O501       Zr536   2.395       .  S
O501        C502   1.279       .  A
C502       C1233   1.481       .  S
O503       Zr512   2.368       .  S
O503        C505   1.260       .  A
O504       Zr535   2.553       .  S
O504        C505   1.297       .  A
C505       C1305   1.506       .  S
O506       Zr509   2.420       .  S
O506        C508   1.284       .  A
O507       Zr536   2.385       .  S
O507        C508   1.280       .  A
C508       C1245   1.429   1_545  S
Zr509       O510   2.449       .  S
Zr509       O511   2.439       .  S
Zr509       O515   2.343       .  S
Zr509       O516   2.440       .  S
Zr509       O539   2.394       .  S
Zr509       O541   2.318       .  S
O510        H553   0.990       .  S
O511        H552   0.990       .  S
O511        H556   0.990       .  S
Zr512       O513   2.434       .  S
Zr512       O514   2.434       .  S
Zr512       O516   2.351       .  S
Zr512       O515   2.404       .  S
Zr512       O540   2.371       .  S
Zr512       O542   2.316       .  S
O513        H554   0.987       .  S
O513        H557   0.988       .  S
O514        H547   0.990       .  S
O515       Zr535   2.362       .  S
O516       Zr536   2.400       .  S
O516        H543   0.965       .  S
O517       Zr529   2.522       .  S
O517        C519   1.302       .  A
O518       Zr536   2.429       .  S
O518        C519   1.284       .  A
C519       C1209   1.513       .  S
O520       Zr532   2.441       .  S
O520        C522   1.286       .  A
O521       Zr535   2.442       .  S
O521        C522   1.291       .  A
C522       C1257   1.481       .  S
O523       Zr532   2.350       .  S
O523        C525   1.270       .  A
O524       Zr536   2.463       .  S
O524        C525   1.295       .  A
C525       C1221   1.463       .  S
O526       Zr529   2.389       .  S
O526        C528   1.278       .  A
O527       Zr535   2.418       .  S
O527        C528   1.290       .  A
C528       C1272   1.467       .  S
Zr529       O530   2.435       .  S
Zr529       O531   2.437       .  S
Zr529       O537   2.356       .  S
Zr529       O538   2.406       .  S
Zr529       O541   2.402       .  S
Zr529       O539   2.337       .  S
O530        H550   0.990       .  S
O530        H555   0.990       .  S
O531        H551   0.990       .  S
Zr532       O533   2.433       .  S
Zr532       O534   2.440       .  S
Zr532       O538   2.331       .  S
Zr532       O537   2.408       .  S
Zr532       O542   2.372       .  S
Zr532       O540   2.350       .  S
O533        H549   0.990       .  S
O534        H548   0.990       .  S
O534        H558   0.990       .  S
Zr535       O538   2.391       .  S
Zr535       O540   2.365       .  S
Zr535       O541   2.399       .  S
Zr536       O537   2.385       .  S
Zr536       O539   2.389       .  S
Zr536       O542   2.362       .  S
O537        H545   0.966       .  S
O540        H544   0.966       .  S
O541        H546   0.966       .  S
O559       Zr571   2.561       .  S
O559        C561   1.311       .  A
O560       Zr597   2.374       .  S
O560        C561   1.278       .  A
C561       C1353   1.508       .  S
O562       Zr574   2.405       .  S
O562        C564   1.279       .  A
O563       Zr598   2.407       .  S
O563        C564   1.283       .  A
C564       C2948   1.455       .  S
O565       Zr574   2.394       .  S
O565        C567   1.266       .  A
O566       Zr597   2.503       .  S
O566        C567   1.294       .  A
C567       C1284   1.492       .  S
O568       Zr571   2.451       .  S
O568        C570   1.292       .  A
O569       Zr598   2.424       .  S
O569        C570   1.289       .  A
C570       C1260   1.481       .  S
Zr571       O572   2.434       .  S
Zr571       O573   2.435       .  S
Zr571       O577   2.352       .  S
Zr571       O578   2.415       .  S
Zr571       O601   2.387       .  S
Zr571       O603   2.351       .  S
O572        H615   0.990       .  S
O573        H614   0.990       .  S
O573        H618   0.990       .  S
Zr574       O575   2.436       .  S
Zr574       O576   2.437       .  S
Zr574       O578   2.361       .  S
Zr574       O577   2.381       .  S
Zr574       O602   2.378       .  S
Zr574       O604   2.343       .  S
O575        H616   0.990       .  S
O575        H619   0.990       .  S
O576        H609   0.990       .  S
O577       Zr597   2.371       .  S
O578       Zr598   2.410       .  S
O578        H605   0.965       .  S
O579       Zr591   2.529       .  S
O579        C581   1.308       .  A
O580       Zr598   2.433       .  S
O580        C581   1.286       .  A
C581       C1161   1.534       .  S
O582       Zr594   2.433       .  S
O582        C584   1.284       .  A
O583       Zr597   2.366       .  S
O583        C584   1.276       .  A
C584       C1248   1.432       .  S
O585       Zr594   2.410       .  S
O585        C587   1.271       .  A
O586       Zr598   2.481       .  S
O586        C587   1.293       .  A
C587       C1173   1.480       .  S
O588       Zr591   2.454       .  S
O588        C590   1.291       .  A
O589       Zr597   2.460       .  S
O589        C590   1.296       .  A
C590       C1197   1.513       .  S
Zr591       O592   2.437       .  S
Zr591       O593   2.433       .  S
Zr591       O599   2.368       .  S
Zr591       O600   2.395       .  S
Zr591       O603   2.394       .  S
Zr591       O601   2.345       .  S
O592        H612   0.990       .  S
O592        H617   0.990       .  S
O593        H613   0.990       .  S
Zr594       O595   2.433       .  S
Zr594       O596   2.440       .  S
Zr594       O600   2.362       .  S
Zr594       O599   2.402       .  S
Zr594       O604   2.359       .  S
Zr594       O602   2.365       .  S
O595        H611   0.990       .  S
O596        H610   0.990       .  S
O596        H620   0.990       .  S
Zr597       O600   2.394       .  S
Zr597       O602   2.390       .  S
Zr597       O603   2.390       .  S
Zr598       O599   2.402       .  S
Zr598       O601   2.391       .  S
Zr598       O604   2.377       .  S
O599        H607   0.966       .  S
O602        H606   0.965       .  S
O603        H608   0.966       .  S
O621       Zr633   2.609       .  S
O621        C623   1.322       .  A
O622       Zr659   2.310       .  S
O622        C623   1.265       .  A
C623       C1296   1.505       .  S
O624       Zr636   2.365       .  S
O624        C626   1.270       .  A
O625       Zr660   2.404       .  S
O625        C626   1.283       .  A
C626       C1269   1.462       .  S
O627       Zr636   2.379       .  S
O627        C629   1.261       .  A
O628       Zr659   2.544       .  S
O628        C629   1.295       .  A
C629       C1413   1.513       .  S
O630       Zr633   2.461       .  S
O630        C632   1.294       .  A
O631       Zr660   2.382       .  S
O631        C632   1.282       .  A
C632       C1152   1.461       .  S
Zr633       O634   2.433       .  S
Zr633       O635   2.435       .  S
Zr633       O639   2.330       .  S
Zr633       O640   2.425       .  S
Zr633       O663   2.405       .  S
Zr633       O665   2.332       .  S
O634        H677   0.990       .  S
O635        H676   0.990       .  S
O635        H680   0.990       .  S
Zr636       O637   2.437       .  S
Zr636       O638   2.436       .  S
Zr636       O640   2.360       .  S
Zr636       O639   2.380       .  S
Zr636       O664   2.366       .  S
Zr636       O666   2.341       .  S
O637        H678   0.990       .  S
O637        H681   0.989       .  S
O638        H671   0.990       .  S
O639       Zr659   2.342       .  S
O640       Zr660   2.405       .  S
O640        H667   0.965       .  S
O641       Zr653   2.579       .  S
O641        C643   1.314       .  A
O642       Zr660   2.438       .  S
O642        C643   1.288       .  A
C643       C1125   1.553       .  S
O644       Zr656   2.439       .  S
O644        C646   1.285       .  A
O645       Zr659   2.380       .  S
O645        C646   1.278       .  A
C646       C1137   1.449       .  S
O647       Zr656   2.394       .  S
O647        C649   1.271       .  A
O648       Zr660   2.476       .  S
O648        C649   1.291       .  A
C649       C1113   1.470       .  S
O650       Zr653   2.428       .  S
O650        C652   1.289       .  A
O651       Zr659   2.392       .  S
O651        C652   1.281       .  A
C652       C1185   1.466       .  S
Zr653       O654   2.435       .  S
Zr653       O655   2.434       .  S
Zr653       O661   2.364       .  S
Zr653       O662   2.404       .  S
Zr653       O665   2.408       .  S
Zr653       O663   2.327       .  S
O654        H674   0.990       .  S
O654        H679   0.990       .  S
O655        H675   0.990       .  S
Zr656       O657   2.432       .  S
Zr656       O658   2.439       .  S
Zr656       O662   2.337       .  S
Zr656       O661   2.411       .  S
Zr656       O666   2.367       .  S
Zr656       O664   2.364       .  S
O657        H673   0.990       .  S
O658        H672   0.990       .  S
O658        H682   0.990       .  S
Zr659       O662   2.386       .  S
Zr659       O664   2.363       .  S
Zr659       O665   2.407       .  S
Zr660       O661   2.380       .  S
Zr660       O663   2.396       .  S
Zr660       O666   2.368       .  S
O661        H669   0.966       .  S
O664        H668   0.966       .  S
O665        H670   0.966       .  S
O683       Zr695   2.579       .  S
O683        C685   1.313       .  A
O684       Zr721   2.327   1_565  S
O684        C685   1.264       .  A
C685       C1320   1.518       .  S
O686       Zr698   2.432       .  S
O686        C688   1.283       .  A
O687       Zr722   2.468       .  S
O687        C688   1.294       .  A
C688       C1200   1.515       .  S
O689       Zr698   2.392       .  S
O689        C691   1.262       .  A
O690       Zr721   2.538   1_565  S
O690        C691   1.293       .  A
C691       C1368   1.511       .  S
O692       Zr695   2.419       .  S
O692        C694   1.286       .  A
O693       Zr722   2.404       .  S
O693        C694   1.286       .  A
C694       C1140   1.455       .  S
Zr695       O696   2.431       .  S
Zr695       O697   2.436       .  S
Zr695       O701   2.318       .  S
Zr695       O702   2.435       .  S
Zr695       O725   2.393       .  S
Zr695       O727   2.329       .  S
O696        H739   0.990       .  S
O697        H738   0.990       .  S
O697        H742   0.990       .  S
Zr698       O699   2.437       .  S
Zr698       O700   2.434       .  S
Zr698       O702   2.363       .  S
Zr698       O701   2.395       .  S
Zr698       O726   2.388   1_565  S
Zr698       O728   2.343       .  S
O699        H740   0.989       .  S
O699        H743   0.989       .  S
O700        H733   0.990   1_565  S
O701       Zr721   2.362   1_565  S
O702       Zr722   2.396       .  S
O702        H729   0.964       .  S
O703       Zr715   2.531       .  S
O703        C705   1.304       .  A
O704       Zr722   2.433       .  S
O704        C705   1.287       .  A
C705       C1104   1.520       .  S
O706       Zr718   2.436       .  S
O706        C708   1.286       .  A
O707       Zr721   2.404       .  S
O707        C708   1.284       .  A
C708       C1149   1.462       .  S
O709       Zr718   2.333       .  S
O709        C711   1.268   1_545  A
O710       Zr722   2.454       .  S
O710        C711   1.292       .  A
C711       C1089   1.444       .  S
O712       Zr715   2.439   1_545  S
O712        C714   1.290       .  A
O713       Zr721   2.422       .  S
O713        C714   1.287       .  A
C714       C1236   1.485       .  S
Zr715       O716   2.441   1_565  S
Zr715       O717   2.434       .  S
Zr715       O723   2.358       .  S
Zr715       O724   2.398   1_565  S
Zr715       O727   2.384       .  S
Zr715       O725   2.344       .  S
O716        H736   0.989       .  S
O716        H741   0.990   1_545  S
O717        H737   0.990       .  S
Zr718       O719   2.432       .  S
Zr718       O720   2.438       .  S
Zr718       O724   2.338       .  S
Zr718       O723   2.404   1_545  S
Zr718       O728   2.378   1_545  S
Zr718       O726   2.333       .  S
O719        H735   0.990       .  S
O720        H734   0.990       .  S
O720        H744   0.990       .  S
Zr721       O724   2.382       .  S
Zr721       O726   2.381       .  S
Zr721       O727   2.394   1_545  S
Zr722       O723   2.393       .  S
Zr722       O725   2.400       .  S
Zr722       O728   2.374       .  S
O723        H731   0.965       .  S
O726        H730   0.966       .  S
O727        H732   0.965       .  S
O745       Zr757   2.356       .  S
O745        C747   1.271       .  A
O746       Zr783   2.492       .  S
O746        C747   1.298   1_565  A
C747       C1572   1.468       .  S
O748       Zr760   2.396       .  S
O748        C750   1.281       .  A
O749       Zr784   2.446       .  S
O749        C750   1.288       .  A
C750       C1077   1.472       .  S
O751       Zr760   2.493   1_565  S
O751        C753   1.297       .  A
O752       Zr783   2.416       .  S
O752        C753   1.281       .  A
C753       C1644   1.498       .  S
O754       Zr757   2.462       .  S
O754        C756   1.290       .  A
O755       Zr784   2.344       .  S
O755        C756   1.268       .  A
C756       C1065   1.458       .  S
Zr757       O758   2.434       .  S
Zr757       O759   2.440       .  S
Zr757       O763   2.403       .  S
Zr757       O764   2.348       .  S
Zr757       O787   2.334       .  S
Zr757       O789   2.393       .  S
O758        H801   0.990       .  S
O759        H800   0.990       .  S
O759        H804   0.990       .  S
Zr760       O761   2.434       .  S
Zr760       O762   2.436   1_545  S
Zr760       O764   2.403       .  S
Zr760       O763   2.364       .  S
Zr760       O788   2.344   1_545  S
Zr760       O790   2.401       .  S
O761        H802   0.990       .  S
O761        H805   0.990       .  S
O762        H795   0.990       .  S
O763       Zr783   2.374   1_545  S
O764       Zr784   2.373       .  S
O764        H791   0.966       .  S
O765       Zr777   2.399   1_545  S
O765        C767   1.271       .  A
O766       Zr784   2.430       .  S
O766        C767   1.274       .  A
C767       C1092   1.457       .  S
O768       Zr780   2.464       .  S
O768        C770   1.295       .  A
O769       Zr783   2.386       .  S
O769        C770   1.282       .  A
C770       C1053   1.471       .  S
O771       Zr780   2.642       .  S
O771        C773   1.324   1_565  A
O772       Zr784   2.290       .  S
O772        C773   1.252       .  A
C773       C1212   1.534       .  S
O774       Zr777   2.413       .  S
O774        C776   1.279       .  A
O775       Zr783   2.386       .  S
O775        C776   1.277       .  A
C776       C1041   1.442       .  S
Zr777       O778   2.433       .  S
Zr777       O779   2.434   1_565  S
Zr777       O785   2.365       .  S
Zr777       O786   2.351       .  S
Zr777       O789   2.333   1_565  S
Zr777       O787   2.378   1_565  S
O778        H798   0.988       .  S
O778        H803   0.989       .  S
O779        H799   0.990       .  S
Zr780       O781   2.434       .  S
Zr780       O782   2.434       .  S
Zr780       O786   2.423       .  S
Zr780       O785   2.312       .  S
Zr780       O790   2.346   1_565  S
Zr780       O788   2.423       .  S
O781        H797   0.990       .  S
O782        H796   0.990       .  S
O782        H806   0.990       .  S
Zr783       O786   2.397       .  S
Zr783       O788   2.404       .  S
Zr783       O789   2.370   1_565  S
Zr784       O785   2.383   1_545  S
Zr784       O787   2.361       .  S
Zr784       O790   2.374       .  S
O785        H793   0.959       .  S
O788        H792   0.966       .  S
O789        H794   0.965       .  S
O807       Zr819   2.374       .  S
O807        C809   1.274       .  A
O808       Zr845   2.506       .  S
O808        C809   1.301       .  A
C809       C1500   1.482       .  S
O810       Zr822   2.385       .  S
O810        C812   1.278       .  A
O811       Zr846   2.428       .  S
O811        C812   1.287       .  A
C812       C1029   1.477       .  S
O813       Zr822   2.451       .  S
O813        C815   1.288       .  A
O814       Zr845   2.428       .  S
O814        C815   1.287       .  A
C815       C1740   1.494       .  S
O816       Zr819   2.446       .  S
O816        C818   1.288       .  A
O817       Zr846   2.365       .  S
O817        C818   1.275       .  A
C818       C1056   1.466       .  S
Zr819       O820   2.434       .  S
Zr819       O821   2.435       .  S
Zr819       O825   2.391       .  S
Zr819       O826   2.353       .  S
Zr819       O849   2.344       .  S
Zr819       O851   2.384       .  S
O820        H863   0.990       .  S
O821        H862   0.990       .  S
O821        H866   0.990       .  S
Zr822       O823   2.434       .  S
Zr822       O824   2.431       .  S
Zr822       O826   2.384       .  S
Zr822       O825   2.365       .  S
Zr822       O850   2.341       .  S
Zr822       O852   2.380       .  S
O823        H864   0.990       .  S
O823        H867   0.990       .  S
O824        H857   0.990       .  S
O825       Zr845   2.368       .  S
O826       Zr846   2.371       .  S
O826        H853   0.966       .  S
O827       Zr839   2.390       .  S
O827        C829   1.265       .  A
O828       Zr846   2.462       .  S
O828        C829   1.278       .  A
C829       C1116   1.476       .  S
O830       Zr842   2.496       .  S
O830        C832   1.300       .  A
O831       Zr845   2.386       .  S
O831        C832   1.282       .  A
C832       C1068   1.471       .  S
O833       Zr842   2.673       .  S
O833        C835   1.331       .  A
O834       Zr846   2.318       .  S
O834        C835   1.258       .  A
C835       C1164   1.543       .  S
O836       Zr839   2.399       .  S
O836        C838   1.278       .  A
O837       Zr845   2.423       .  S
O837        C838   1.284       .  A
C838       C1020   1.468       .  S
Zr839       O840   2.438       .  S
Zr839       O841   2.432       .  S
Zr839       O847   2.376       .  S
Zr839       O848   2.351       .  S
Zr839       O851   2.355       .  S
Zr839       O849   2.385       .  S
O840        H860   0.988       .  S
O840        H865   0.989       .  S
O841        H861   0.990       .  S
Zr842       O843   2.435       .  S
Zr842       O844   2.435       .  S
Zr842       O848   2.427       .  S
Zr842       O847   2.317       .  S
Zr842       O852   2.336       .  S
Zr842       O850   2.428       .  S
O843        H859   0.990       .  S
O844        H858   0.990       .  S
O844        H868   0.990       .  S
Zr845       O848   2.409       .  S
Zr845       O850   2.413       .  S
Zr845       O851   2.371       .  S
Zr846       O847   2.403       .  S
Zr846       O849   2.369       .  S
Zr846       O852   2.369       .  S
O847        H855   0.961       .  S
O850        H854   0.966       .  S
O851        H856   0.966       .  S
O869      Zr2641   2.297       .  S
O869        C871   1.254       .  A
O870      Zr2667   2.610       .  S
O870        C871   1.320       .  A
C871       C1752   1.515       .  S
O872       Zr884   2.387       .  S
O872        C874   1.278       .  A
O873       Zr908   2.447       .  S
O873        C874   1.292       .  A
C874       C1017   1.463       .  S
O875       Zr884   2.478       .  S
O875        C877   1.296       .  A
O876       Zr907   2.420       .  S
O876        C877   1.280       .  A
C877       C1584   1.508       .  S
O878       Zr881   2.408       .  S
O878        C880   1.279       .  A
O879       Zr908   2.382       .  S
O879        C880   1.275       .  A
C880        C996   1.444       .  S
Zr881      O2629   2.288   1_455  S
Zr881       O882   2.434       .  S
Zr881      O2643   2.442   1_455  S
Zr881       O887   2.398       .  S
Zr881       O888   2.334       .  S
Zr881      O2671   2.316       .  S
Zr881      O2673   2.396   1_455  S
O882        H925   0.990       .  S
O883      Zr2641   2.445       .  S
O883        H924   0.990       .  S
O883        H928   0.988       .  S
Zr884       O885   2.434       .  S
Zr884       O886   2.434       .  S
Zr884       O888   2.399       .  S
Zr884       O887   2.368       .  S
Zr884       O912   2.322       .  S
Zr884       O914   2.401       .  S
O885        H926   0.990       .  S
O885        H929   0.990       .  S
O886        H919   0.990       .  S
O887       Zr907   2.355       .  S
O888       Zr908   2.358       .  S
O888        H915   0.966       .  S
O889       Zr901   2.409       .  S
O889        C891   1.270       .  A
O890       Zr908   2.446       .  S
O890       C2651   1.279   1_455  A
C891       O2650   1.279       .  A
C891       C1224   1.474       .  S
O892       Zr904   2.468       .  S
O892        C894   1.297       .  A
O893       Zr907   2.425       .  S
O893        C894   1.290       .  A
C894       C1005   1.481       .  S
O895       Zr904   2.695       .  S
O895        C897   1.340       .  A
O896       Zr908   2.280       .  S
O896        C897   1.258       .  A
C897       C1128   1.542       .  S
O898       Zr901   2.408       .  S
O898        C900   1.264       .  A
O899      Zr2667   2.399       .  S
O899        C900   1.259       .  A
C900       C1080   1.462       .  S
Zr901       O902   2.447       .  S
Zr901       O903   2.433       .  S
Zr901       O910   2.332       .  S
Zr901       O913   2.367       .  S
Zr901       O911   2.404       .  S
Zr901      O2669   2.408       .  S
O902        H922   0.989       .  S
O902        H927   0.988       .  S
O903        H923   0.990       .  S
Zr904       O905   2.434       .  S
Zr904       O906   2.434       .  S
Zr904       O909   2.315       .  S
Zr904       O914   2.320       .  S
Zr904       O912   2.459       .  S
Zr904      O2670   2.432       .  S
O905        H921   0.989       .  S
O906        H920   0.990       .  S
O906        H930   0.990       .  S
Zr907      O2630   2.611   1_455  S
Zr907      O2659   2.387   1_455  S
Zr907       O912   2.441       .  S
Zr907      O2670   2.446       .  S
Zr907      O2673   2.388   1_455  S
Zr908       O909   2.419       .  S
Zr908       O914   2.377       .  S
Zr908      O2671   2.349       .  S
O909      Zr2661   2.400   1_455  S
O909        H917   0.965       .  S
O910      Zr2664   2.431       .  S
O910      Zr2667   2.447       .  S
O911      Zr2641   2.320       .  S
O911      Zr2668   2.350       .  S
O912        H916   0.966       .  S
O913      Zr2641   2.399       .  S
O913      Zr2667   2.391       .  S
O913        H918   0.967       .  S
O931      Zr2703   2.367       .  S
O931        C933   1.271       .  A
O932      Zr2729   2.507       .  S
O932        C933   1.301       .  A
C933       C1656   1.476       .  S
O934       Zr946   2.386       .  S
O934        C936   1.277       .  A
O935       Zr970   2.424       .  S
O935        C936   1.286       .  A
C936       C1044   1.441       .  S
O937       Zr946   2.482       .  S
O937        C939   1.295       .  A
O938       Zr969   2.449       .  S
O938        C939   1.288       .  A
C939       C1512   1.523       .  S
O940       Zr943   2.455       .  S
O940        C942   1.289       .  A
O941       Zr970   2.358       .  S
O941        C942   1.273       .  A
C942       C1008   1.470       .  S
Zr943      O2691   2.368   1_455  S
Zr943       O944   2.435       .  S
Zr943      O2705   2.440   1_455  S
Zr943       O949   2.400       .  S
Zr943       O950   2.349       .  S
Zr943       O973   2.345       .  S
Zr943      O2735   2.393   1_455  S
O944        H987   0.990       .  S
O945      Zr2703   2.440       .  S
O945        H986   0.990       .  S
O945        H990   0.990       .  S
Zr946       O947   2.434       .  S
Zr946       O948   2.434       .  S
Zr946       O950   2.403       .  S
Zr946       O949   2.364       .  S
Zr946       O974   2.334       .  S
Zr946       O976   2.393       .  S
O947        H988   0.990       .  S
O947        H991   0.990       .  S
O948        H981   0.990       .  S
O949       Zr969   2.371       .  S
O950       Zr970   2.380       .  S
O950        H977   0.966       .  S
O951       Zr963   2.403       .  S
O951       C2713   1.270       .  A
O952       Zr970   2.465       .  S
O952        C953   1.284       .  A
C953       O2711   1.270   1_455  A
C953       C2936   1.492   1_455  S
O954       Zr966   2.451       .  S
O954        C956   1.291       .  A
O955       Zr969   2.397       .  S
O955        C956   1.283       .  A
C956        C993   1.450       .  S
O957       Zr966   2.623       .  S
O957        C959   1.322       .  A
O958       Zr970   2.300       .  S
O958        C959   1.264       .  A
C959       C1101   1.527       .  S
O960       Zr963   2.411       .  S
O960        C962   1.282       .  A
O961      Zr2729   2.388       .  S
O961        C962   1.278       .  A
C962       C1032   1.476       .  S
Zr963       O964   2.438       .  S
Zr963       O965   2.434       .  S
Zr963       O975   2.352       .  S
Zr963      O2731   2.378       .  S
Zr963      O2732   2.350       .  S
Zr963      O2733   2.379       .  S
O964        H984   0.988       .  S
O964        H989   0.990       .  S
O965        H985   0.990       .  S
Zr966       O967   2.434       .  S
Zr966       O968   2.436       .  S
Zr966       O972   2.419       .  S
Zr966       O971   2.329       .  S
Zr966       O976   2.335       .  S
Zr966       O974   2.424       .  S
O967        H983   0.990       .  S
O968        H982   0.990       .  S
O968        H992   0.990       .  S
Zr969      O2692   2.509   1_455  S
Zr969      O2721   2.388   1_455  S
Zr969       O972   2.412       .  S
Zr969       O974   2.406       .  S
Zr969      O2735   2.379   1_455  S
Zr970       O971   2.390       .  S
Zr970       O973   2.362       .  S
Zr970       O976   2.375       .  S
O971      Zr2723   2.378   1_455  S
O971        H979   0.965       .  S
O972      Zr2723   2.349   1_455  S
O973      Zr2723   2.379   1_455  S
O974        H978   0.966       .  S
O975      Zr2703   2.393       .  S
O975      Zr2729   2.379       .  S
O975        H980   0.965       .  S
C993        C994   1.401       .  A
C993        C998   1.408       .  A
C994        C995   1.393       .  A
C994        H999   1.085       .  S
C995        C996   1.405       .  A
C995       C1002   1.445       .  S
C996        C997   1.397       .  A
C997        C998   1.392       .  A
C997       H2760   1.085   1_455  S
C998       C2761   1.444   1_455  S
H1000      C2757   1.085       .  S
C1001      C2758   1.444       .  S
C1001      N1003   1.157       .  T
C1002      N1004   1.157       .  T
C1005      C1006   1.408       .  A
C1005      C1010   1.409       .  A
C1006      C1007   1.396   1_545  A
C1006      H1011   1.079       .  S
C1007      C1008   1.404       .  A
C1007      C1014   1.445       .  S
C1008      C1009   1.408       .  A
C1009      C1010   1.397   1_565  A
C1009      H1012   1.085       .  S
C1010      C1013   1.443       .  S
C1013      N1015   1.157       .  T
C1014      N1016   1.157       .  T
C1017      C1018   1.394       .  A
C1017      C1022   1.416       .  A
C1018      C1019   1.387       .  A
C1018      H1023   1.085       .  S
C1019      C1020   1.414       .  A
C1019      C1026   1.444       .  S
C1020      C1021   1.402       .  A
C1021      C1022   1.399       .  A
C1021      H1024   1.085       .  S
C1022      C1025   1.446       .  S
C1025      N1027   1.158       .  T
C1026      N1028   1.157       .  T
C1029      C1030   1.412       .  A
C1029      C1034   1.409       .  A
C1030      C1031   1.392       .  A
C1030      H1035   1.085       .  S
C1031      C1032   1.413       .  A
C1031      C1038   1.447       .  S
C1032      C1033   1.407       .  A
C1033      C1034   1.388       .  A
C1033      H1036   1.085       .  S
C1034      C1037   1.443       .  S
C1037      N1039   1.156       .  T
C1038      N1040   1.158       .  T
C1041      C1042   1.398       .  A
C1041      C1046   1.406       .  A
C1042      C1043   1.387       .  A
C1042      H1047   1.086       .  S
C1043      C1044   1.403       .  A
C1043      C1050   1.445       .  S
C1044      C1045   1.401       .  A
C1045      C1046   1.394       .  A
C1045      H1048   1.085       .  S
C1046      C1049   1.445       .  S
C1049      N1051   1.157       .  T
C1050      N1052   1.157       .  T
C1053      C1054   1.409       .  A
C1053      C1058   1.408       .  A
C1054      C1055   1.393       .  A
C1054      H1059   1.085       .  S
C1055      C1056   1.406       .  A
C1055      C1062   1.445       .  S
C1056      C1057   1.407       .  A
C1057      C1058   1.394       .  A
C1057      H1060   1.085       .  S
C1058      C1061   1.444       .  S
C1061      N1063   1.157       .  T
C1062      N1064   1.157       .  T
C1065      C1066   1.388       .  A
C1065      C1070   1.418       .  A
C1066      C1067   1.386       .  A
C1066      H1071   1.087       .  S
C1067      C1068   1.412       .  A
C1067      C1074   1.431       .  S
C1068      C1069   1.400       .  A
C1069      C1070   1.404       .  A
C1069      H1072   1.084       .  S
C1070      C1073   1.444       .  S
C1073      N1075   1.157       .  T
C1074      N1076   1.152       .  T
C1077      C1078   1.408       .  A
C1077      C1082   1.411       .  A
C1078      C1079   1.387       .  A
C1078      H1083   1.085       .  S
C1079      C1080   1.405       .  A
C1079      C1086   1.446       .  S
C1080      C1081   1.399       .  A
C1081      C1082   1.397       .  A
C1081      H1084   1.083       .  S
C1082      C1085   1.440       .  S
C1085      N1087   1.157       .  T
C1086      N1088   1.157       .  T
C1089      C1090   1.391       .  A
C1089      C1094   1.413   1_565  A
C1090      C1091   1.394   1_565  A
C1090      H1095   1.086       .  S
C1091      C1092   1.420       .  A
C1091      C1098   1.437   1_545  S
C1092      C1093   1.395       .  A
C1093      C1094   1.382       .  A
C1093      H1096   1.086       .  S
C1094      C1097   1.446       .  S
C1097      N1099   1.157       .  T
C1098      N1100   1.156       .  T
C1101      C1102   1.422       .  A
C1101      C1106   1.415       .  A
C1102      C1103   1.408       .  A
C1102      H1107   1.086       .  S
C1103      C1104   1.408       .  A
C1103      C1110   1.446       .  S
C1104      C1105   1.422       .  A
C1105      C1106   1.433       .  A
C1105      H1108   1.084       .  S
C1106      C1109   1.440       .  S
C1109      N1111   1.157       .  T
C1110      N1112   1.158       .  T
C1113      C1114   1.405       .  A
C1113      C1118   1.406       .  A
C1114      C1115   1.397       .  A
C1114      H1119   1.082       .  S
C1115      C1116   1.406       .  A
C1115      C1122   1.445       .  S
C1116      C1117   1.409       .  A
C1117      C1118   1.405       .  A
C1117      H1120   1.082       .  S
C1118      C1121   1.443       .  S
C1121      N1123   1.157       .  T
C1122      N1124   1.157       .  T
C1125      C1126   1.422       .  A
C1125      C1130   1.421       .  A
C1126      C1127   1.442       .  A
C1126      H1131   1.084       .  S
C1127      C1128   1.426       .  A
C1127      C1134   1.440       .  S
C1128      C1129   1.422       .  A
C1129      C1130   1.425       .  A
C1129      H1132   1.085       .  S
C1130      C1133   1.445       .  S
C1133      N1135   1.158       .  T
C1134      N1136   1.157       .  T
C1137      C1138   1.399       .  A
C1137      C1142   1.405       .  A
C1138      C1139   1.389       .  A
C1138      H1143   1.086       .  S
C1139      C1140   1.410       .  A
C1139      C1146   1.446       .  S
C1140      C1141   1.403       .  A
C1141      C1142   1.392       .  A
C1141      H1144   1.085       .  S
C1142      C1145   1.444       .  S
C1145      N1147   1.157       .  T
C1146      N1148   1.157       .  T
C1149      C1150   1.400       .  A
C1149      C1154   1.407       .  A
C1150      C1151   1.394       .  A
C1150      H1155   1.079       .  S
C1151      C1152   1.406       .  A
C1151      C1158   1.445       .  S
C1152      C1153   1.406       .  A
C1153      C1154   1.394       .  A
C1153      H1156   1.086       .  S
C1154      C1157   1.444       .  S
C1157      N1159   1.157       .  T
C1158      N1160   1.157       .  T
C1161      C1162   1.391       .  A
C1161      C1166   1.433       .  A
C1162      C1163   1.404       .  A
C1162      H1167   1.086       .  S
C1163      C1164   1.444       .  A
C1163      C1170   1.441       .  S
C1164      C1165   1.414       .  A
C1165      C1166   1.437       .  A
C1165      H1168   1.084       .  S
C1166      C1169   1.442       .  S
C1169      N1171   1.157       .  T
C1170      N1172   1.158       .  T
C1173      C1174   1.401       .  A
C1173      C1178   1.414       .  A
C1174      C1175   1.401       .  A
C1174      H1179   1.085       .  S
C1175      C1176   1.416       .  A
C1175      C1182   1.445       .  S
C1176      C2713   1.492       .  S
C1176      C2937   1.408       .  A
C1177      C2936   1.408   1_455  A
C1177      C2938   1.408   1_455  A
C1177      H1180   1.084       .  S
C1178      C2937   1.408       .  A
C1178      C2941   1.442       .  S
C1181      C2938   1.442   1_455  S
C1181      N1183   1.157       .  T
C1182      N1184   1.157       .  T
C1185      C1186   1.406       .  A
C1185      C1190   1.414       .  A
C1186      C1187   1.388       .  A
C1186      H1191   1.085       .  S
C1187      C1188   1.404       .  A
C1187      C1194   1.444       .  S
C1188      C2324   1.455   1_455  S
C1188      C1189   1.403       .  A
C1189      C1190   1.388       .  A
C1189      H1192   1.086       .  S
C1190      C1193   1.447       .  S
C1193      N1195   1.158       .  T
C1194      N2956   1.157   1_455  T
N1196      C2954   1.157       .  T
C1197      C1198   1.405       .  A
C1197      C1202   1.423       .  A
C1198      C1199   1.406       .  A
C1198      H1203   1.085       .  S
C1199      C1200   1.427       .  A
C1199      C1206   1.444       .  S
C1200      C1201   1.408       .  A
C1201      C1202   1.411       .  A
C1201      H1204   1.084       .  S
C1202      C1205   1.444       .  S
C1205      N1207   1.157       .  T
C1206      N1208   1.157       .  T
C1209      C1210   1.387       .  A
C1209      C1214   1.423       .  A
C1210      C1211   1.402       .  A
C1210      H1215   1.087       .  S
C1211      C1212   1.446       .  A
C1211      C1218   1.441       .  S
C1212      C1213   1.411       .  A
C1213      C1214   1.430       .  A
C1213      H1216   1.082   1_545  S
C1214      C1217   1.437       .  S
C1217      N1219   1.157   1_545  T
C1218      N1220   1.155       .  T
C1221      C1222   1.416       .  A
C1221      C1226   1.393       .  A
C1222      C1223   1.399       .  A
C1222      H1227   1.085       .  S
C1223      C1224   1.400       .  A
C1223      C1230   1.444       .  S
C1224      C1225   1.403       .  A
C1225      C1226   1.393       .  A
C1225      H1228   1.066       .  S
C1226      C1229   1.447       .  S
C1229      N1231   1.158       .  T
C1230      N2992   1.157       .  T
N1232      C2990   1.157       .  T
C1233      C1238   1.413       .  A
C1233      C2994   1.404       .  A
C1234      C1235   1.391       .  A
C1234      C2993   1.404   1_455  A
C1234      H1239   1.085       .  S
C1235      C1236   1.415       .  A
C1235      C1242   1.441       .  S
C1236      C1237   1.410       .  A
C1237      C2998   1.397   1_455  A
C1237      H1240   1.084       .  S
C1238      C2997   1.398       .  A
C1238      C1241   1.445       .  S
C1241      N1243   1.158       .  T
C1242      N1244   1.156       .  T
C1245      C1246   1.388       .  A
C1245      C1250   1.403       .  A
C1246      C1247   1.378       .  A
C1246      H1251   1.076       .  S
C1247      C1248   1.402       .  A
C1247      C1254   1.447       .  S
C1248      C1249   1.402       .  A
C1249      C1250   1.395       .  A
C1249      H1252   1.084       .  S
C1250      C1253   1.445       .  S
C1253      N1255   1.157   1_565  T
C1254      N1256   1.157       .  T
C1257      C1258   1.407       .  A
C1257      C1262   1.408       .  A
C1258      C1259   1.405       .  A
C1258      H1263   1.085       .  S
C1259      C1260   1.414       .  A
C1259      C1266   1.446       .  S
C1260      C1261   1.403       .  A
C1261      C1262   1.397       .  A
C1261      H1264   1.085       .  S
C1262      C1265   1.438       .  S
C1265      N1267   1.155       .  T
C1266      N1268   1.158       .  T
C1269      C1270   1.399       .  A
C1269      C1274   1.419       .  A
C1270      C1271   1.388       .  A
C1270      H1275   1.085       .  S
C1271      C1272   1.419       .  A
C1271      C1278   1.445       .  S
C1272      C1273   1.397       .  A
C1273      C1274   1.379       .  A
C1273      H1276   1.084       .  S
C1274      C1277   1.447       .  S
C1277      N1279   1.157       .  T
C1278      N1280   1.157       .  T
C1281      C1282   1.401       .  A
C1281      C1286   1.419       .  A
C1282      C1283   1.395       .  A
C1282      H1287   1.085       .  S
C1283      C1284   1.411       .  A
C1283      C1290   1.432       .  S
C1284      C1285   1.411       .  A
C1285      C1286   1.412       .  A
C1285      H1288   1.085       .  S
C1286      C1289   1.444       .  S
C1289      N3051   1.158       .  T
C1290      N1292   1.153       .  T
N1291      C3049   1.158   1_455  T
C1293      C1294   1.414       .  A
C1293      C1298   1.412       .  A
C1294      C1295   1.420       .  A
C1294      H1299   1.085       .  S
C1295      C1296   1.414       .  A
C1295      C1302   1.441       .  S
C1296      C1297   1.414       .  A
C1297      C1298   1.411       .  A
C1297      H1300   1.084       .  S
C1298      C1301   1.444       .  S
C1301      N1303   1.157       .  T
C1302      N1304   1.157       .  T
C1305      C1306   1.405       .  A
C1305      C1310   1.427       .  A
C1306      C1307   1.399       .  A
C1306      H1311   1.085       .  S
C1307      C1308   1.420       .  A
C1307      C1314   1.445       .  S
C1308      C1309   1.392       .  A
C1309      C1310   1.411       .  A
C1309      H1312   1.085       .  S
C1310      C1313   1.422       .  S
C1313      N1315   1.151       .  T
C1314      N3076   1.157       .  T
N1316      C3074   1.157   1_455  T
C1317      C1318   1.396   1_565  A
C1317      C1322   1.418       .  A
C1318      C1319   1.397       .  A
C1318      H1323   1.086       .  S
C1319      C1320   1.434   1_545  A
C1319      C1326   1.449       .  S
C1320      C1321   1.408       .  A
C1321      C1322   1.421       .  A
C1321      H1324   1.084       .  S
C1322      C1325   1.437       .  S
C1325      N1327   1.156       .  T
C1326      N1328   1.158       .  T
C1329      C1330   1.411       .  A
C1329      C1334   1.422       .  A
C1330      C1331   1.397       .  A
C1330      H1335   1.084   1_556  S
C1331      C1332   1.409       .  A
C1331      C1338   1.446   1_556  S
C1332      C1333   1.401       .  A
C1333      C1334   1.408       .  A
C1333      H3096   1.084   1_455  S
C1334      C1337   1.443   1_455  S
H1336      C3093   1.084       .  S
C1337      N3099   1.157       .  T
C1338      N1340   1.157       .  T
N1339      C3097   1.157       .  T
C1341      C1342   1.397       .  A
C1341      C3106   1.412   1_455  A
C1342      C1343   1.383       .  A
C1342      H1347   1.087       .  S
C1343      C1344   1.403       .  A
C1343      C1350   1.440   1_554  S
C1344      C3105   1.402   1_455  A
C1345      C1346   1.400       .  A
C1345      C3104   1.402       .  A
C1345      H1348   1.085       .  S
C1346      C3101   1.412       .  A
C1346      C1349   1.444       .  S
C1349      N1351   1.157       .  T
C1350      N1352   1.156       .  T
C1353      C1354   1.408       .  A
C1353      C1358   1.419       .  A
C1354      C1355   1.413       .  A
C1354      H1359   1.077       .  S
C1355      C1356   1.415       .  A
C1355      C1362   1.443       .  S
C1356      C1357   1.406       .  A
C1357      C1358   1.413       .  A
C1357      H1360   1.085       .  S
C1358      C1361   1.442       .  S
C1361      N1363   1.157       .  T
C1362      N1364   1.157       .  T
C1365      C1366   1.398       .  A
C1365      C1370   1.416       .  A
C1366      C1367   1.412       .  A
C1366      H1371   1.086       .  S
C1367      C1368   1.423       .  A
C1367      C1374   1.430       .  S
C1368      C1369   1.411       .  A
C1369      C1370   1.400       .  A
C1369      H1372   1.085       .  S
C1370      C1373   1.447       .  S
C1373      N1375   1.157       .  T
C1374      N1376   1.154       .  T
C1377      C1378   1.398       .  A
C1377      C1382   1.414       .  A
C1378      C1379   1.394       .  A
C1378      H1383   1.080       .  S
C1379      C1380   1.408       .  A
C1379      C1386   1.444       .  S
C1380      C1381   1.401       .  A
C1381      C1382   1.400       .  A
C1381      H1384   1.085       .  S
C1382      C1385   1.445       .  S
C1385      N1387   1.158       .  T
C1386      N1388   1.157       .  T
C1389      C1390   1.420       .  A
C1389      C1394   1.401   1_556  A
C1390      C1391   1.412       .  A
C1390      H1395   1.084       .  S
C1391      C1392   1.409       .  A
C1391      C1398   1.441       .  S
C1392      C1393   1.428       .  A
C1393      C1394   1.407   1_556  A
C1393      H1396   1.084   1_556  S
C1394      C1397   1.443       .  S
C1397      N1399   1.157       .  T
C1398      N1400   1.157       .  T
C1401      C1402   1.417       .  A
C1401      C1406   1.411       .  A
C1402      C1403   1.419       .  A
C1402      H1407   1.084       .  S
C1403      C1404   1.409       .  A
C1403      C1410   1.440       .  S
C1404      C1405   1.414       .  A
C1405      C1406   1.396       .  A
C1405      H1408   1.085       .  S
C1406      C1409   1.446       .  S
C1409      N1411   1.157       .  T
C1410      N1412   1.157       .  T
C1413      C1414   1.413       .  A
C1413      C1418   1.422       .  A
C1414      C1415   1.403       .  A
C1414      H1419   1.085       .  S
C1415      C1416   1.417       .  A
C1415      C1422   1.447       .  S
C1416      C1417   1.401       .  A
C1417      C1418   1.414       .  A
C1417      H1420   1.085       .  S
C1418      C1421   1.434       .  S
C1421      N1423   1.155       .  T
C1422      N1424   1.158       .  T
C1425      C1426   1.398       .  A
C1425      C1430   1.416       .  A
C1426      C1427   1.402       .  A
C1426      H1431   1.085       .  S
C1427      C1428   1.419       .  A
C1427      C1434   1.443       .  S
C1428      C1429   1.394       .  A
C1429      C1430   1.399       .  A
C1429      H1432   1.077       .  S
C1430      C1433   1.446       .  S
C1433      N1435   1.157       .  T
C1434      N1436   1.157       .  T
C1437      C1438   1.415       .  A
C1437      C1442   1.405   1_556  A
C1438      C1439   1.396       .  A
C1438      H1443   1.085       .  S
C1439      C1440   1.404       .  A
C1439      C1446   1.442       .  S
C1440      C1441   1.417       .  A
C1441      C1442   1.401   1_556  A
C1441      H1444   1.085       .  S
C1442      C1445   1.442       .  S
C1445      N1447   1.157       .  T
C1446      N1448   1.157       .  T
C1449      C1450   1.399   1_566  A
C1449      C1454   1.415   1_565  A
C1450      C1451   1.400       .  A
C1450      H1455   1.085       .  S
C1451      C1452   1.414   1_554  A
C1451      C1458   1.445       .  S
C1452      C1453   1.396       .  A
C1453      C1454   1.398       .  A
C1453      H1456   1.085       .  S
C1454      C1457   1.444   1_545  S
C1457      N1459   1.157       .  T
C1458      N1460   1.157       .  T
C1461      C1462   1.400       .  A
C1461      C1466   1.420   1_554  A
C1462      C1463   1.393       .  A
C1462      H1467   1.084       .  S
C1463      C1464   1.407       .  A
C1463      C1470   1.433       .  S
C1464      C1465   1.396   1_554  A
C1465      C1466   1.389       .  A
C1465      H1468   1.087       .  S
C1466      C1469   1.443       .  S
C1469      N1471   1.157       .  T
C1470      N1472   1.153       .  T
C1473      C1474   1.411       .  A
C1473      C1478   1.416       .  A
C1474      C1475   1.431       .  A
C1474      H1479   1.084       .  S
C1475      C1476   1.429       .  A
C1475      C1482   1.436       .  S
C1476      C1477   1.416       .  A
C1477      C1478   1.411       .  A
C1477      H1480   1.084       .  S
C1478      C1481   1.446       .  S
C1481      N1483   1.157       .  T
C1482      N1484   1.156       .  T
C1485      C1486   1.408       .  A
C1485      C1490   1.418       .  A
C1486      C1487   1.409       .  A
C1486      H1491   1.085       .  S
C1487      C1488   1.418       .  A
C1487      C3254   1.438       .  S
C1488      C1489   1.408       .  A
C1489      C1490   1.406       .  A
C1489      H1492   1.085       .  S
C1490      C1493   1.443       .  S
C1493      N1495   1.157       .  T
C1494      C3247   1.438       .  S
C1494      N1496   1.156       .  T
C1497      C1498   1.413       .  A
C1497      C1502   1.428       .  A
C1498      C1499   1.417       .  A
C1498      H1503   1.075       .  S
C1499      C1500   1.415       .  A
C1499      C1506   1.444       .  S
C1500      C1501   1.397       .  A
C1501      C1502   1.402       .  A
C1501      H1504   1.087       .  S
C1502      C1505   1.442       .  S
C1505      N1507   1.157       .  T
C1506      N1508   1.157       .  T
C1509      C1510   1.403       .  A
C1509      C1514   1.414       .  A
C1510      C1511   1.398       .  A
C1510      H1515   1.078       .  S
C1511      C1512   1.419       .  A
C1511      C1518   1.443       .  S
C1512      C1513   1.421       .  A
C1513      C1514   1.425       .  A
C1513      H1516   1.084       .  S
C1514      C1517   1.443       .  S
C1517      N3279   1.158       .  T
C1518      N1520   1.157       .  T
N1519      C3277   1.158       .  T
C1521      C1522   1.390       .  A
C1521      C1526   1.439       .  A
C1522      C1523   1.410       .  A
C1522      H1527   1.086       .  S
C1523      C1524   1.440       .  A
C1523      C1530   1.438       .  S
C1524      C1525   1.392       .  A
C1525      C1526   1.407       .  A
C1525      H1528   1.085       .  S
C1526      C1529   1.441       .  S
C1529      N1531   1.157       .  T
C1530      N1532   1.156       .  T
C1533      C1534   1.415       .  A
C1533      C1538   1.424       .  A
C1534      C1535   1.420       .  A
C1534      H1539   1.085       .  S
C1535      C1536   1.417       .  A
C1535      C1542   1.444       .  S
C1536      C1537   1.393       .  A
C1537      C1538   1.398       .  A
C1537      H1540   1.086       .  S
C1538      C1541   1.434       .  S
C1541      N1543   1.155       .  T
C1542      N1544   1.158       .  T
C1545      C1546   1.404       .  A
C1545      C1550   1.421       .  A
C1546      C1547   1.414       .  A
C1546      H1551   1.084       .  S
C1547      C1548   1.418       .  A
C1547      C1554   1.443       .  S
C1548      C1549   1.403       .  A
C1549      C1550   1.411       .  A
C1549      H1552   1.085       .  S
C1550      C1553   1.446       .  S
C1553      N1555   1.158       .  T
C1554      N1556   1.157       .  T
C1557      C1558   1.400       .  A
C1557      C1562   1.409       .  A
C1558      C1559   1.394       .  A
C1558      H1563   1.086       .  S
C1559      C1560   1.417       .  A
C1559      C1566   1.444       .  S
C1560      C1561   1.404       .  A
C1561      C1562   1.387       .  A
C1561      H1564   1.085       .  S
C1562      C1565   1.444       .  S
C1565      N1567   1.157       .  T
C1566      N1568   1.157       .  T
C1569      C1570   1.414       .  A
C1569      C1574   1.408       .  A
C1570      C1571   1.397       .  A
C1570      H1575   1.076       .  S
C1571      C1572   1.393       .  A
C1571      C1578   1.447       .  S
C1572      C1573   1.415       .  A
C1573      C1574   1.414       .  A
C1573      H1576   1.085       .  S
C1574      C1577   1.436       .  S
C1577      N1579   1.156       .  T
C1578      N1580   1.157   1_545  T
C1581      C1582   1.406       .  A
C1581      C1586   1.429       .  A
C1582      C1583   1.423       .  A
C1582      H1587   1.084       .  S
C1583      C1584   1.428       .  A
C1583      C1590   1.441       .  S
C1584      C1585   1.393       .  A
C1585      C1586   1.392       .  A
C1585      H1588   1.086       .  S
C1586      C1589   1.445       .  S
C1589      N1591   1.157       .  T
C1590      N1592   1.157       .  T
C1593      C1594   1.397       .  A
C1593      C1598   1.421       .  A
C1594      C1595   1.389       .  A
C1594      H1599   1.086       .  S
C1595      C1596   1.419       .  A
C1595      C1602   1.442       .  S
C1596      C1597   1.402       .  A
C1597      C1598   1.409       .  A
C1597      H1600   1.085       .  S
C1598      C1601   1.443       .  S
C1601      N1603   1.157       .  T
C1602      N1604   1.157       .  T
C1605      C1606   1.418   1_545  A
C1605      C1610   1.418       .  A
C1606      C1607   1.424       .  A
C1606      H3371   1.084       .  S
C1607      C1608   1.414       .  A
C1607      C1614   1.440       .  S
C1608      C1609   1.412       .  A
C1609      C1610   1.404   1_565  A
C1609      H1612   1.086       .  S
C1610      C1613   1.447       .  S
H1611      C3366   1.084   1_455  S
C1613      N1615   1.158       .  T
C1614      N3376   1.157       .  T
N1616      C3374   1.157   1_455  T
C1617      C1622   1.410       .  A
C1617      C3378   1.405       .  A
C1618      C1619   1.389       .  A
C1618      C3377   1.405   1_455  A
C1618      H1623   1.086       .  S
C1619      C1620   1.396       .  A
C1619      C1626   1.441       .  S
C1620      C3381   1.408       .  A
C1621      C1622   1.399       .  A
C1621      C3380   1.408       .  A
C1621      H1624   1.085       .  S
C1622      C1625   1.445       .  S
C1625      N1627   1.157       .  T
C1626      N1628   1.156       .  T
C1629      C1630   1.395       .  A
C1629      C1634   1.429       .  A
C1630      C1631   1.398   1_545  A
C1630      H1635   1.085       .  S
C1631      C1632   1.431       .  A
C1631      C1638   1.445       .  S
C1632      C1633   1.396   1_565  A
C1633      C1634   1.403       .  A
C1633      H1636   1.085       .  S
C1634      C1637   1.441       .  S
C1637      N1639   1.156       .  T
C1638      N1640   1.157       .  T
C1641      C1642   1.418       .  A
C1641      C1646   1.410       .  A
C1642      C1643   1.395       .  A
C1642      H1647   1.086       .  S
C1643      C1644   1.403       .  A
C1643      C1650   1.446       .  S
C1644      C1645   1.419       .  A
C1645      C1646   1.424       .  A
C1645      H1648   1.084       .  S
C1646      C1649   1.441       .  S
C1649      N1651   1.157       .  T
C1650      N1652   1.157   1_565  T
C1653      C1654   1.408       .  A
C1653      C1658   1.433       .  A
C1654      C1655   1.416       .  A
C1654      H1659   1.084       .  S
C1655      C1656   1.420       .  A
C1655      C1662   1.443       .  S
C1656      C1657   1.392       .  A
C1657      C1658   1.398       .  A
C1657      H1660   1.087       .  S
C1658      C1661   1.445       .  S
C1661      N1663   1.157       .  T
C1662      N1664   1.157       .  T
C1665      C1666   1.405       .  A
C1665      C1670   1.414       .  A
C1666      C1667   1.397       .  A
C1666      H1671   1.085       .  S
C1667      C1668   1.410       .  A
C1667      C1674   1.445       .  S
C1668      C1669   1.400       .  A
C1669      C1670   1.398       .  A
C1669      H1672   1.085       .  S
C1670      C1673   1.442       .  S
C1673      N1675   1.156       .  T
C1674      N1676   1.157       .  T
C1677      C1678   1.395       .  A
C1677      C1682   1.437       .  A
C1678      C1679   1.400       .  A
C1678      H1683   1.085       .  S
C1679      C1680   1.421       .  A
C1679      C1686   1.447       .  S
C1680      C1681   1.380       .  A
C1681      C1682   1.390       .  A
C1681      H1684   1.086       .  S
C1682      C1685   1.443       .  S
C1685      N3447   1.158       .  T
C1686      N1688   1.158       .  T
N1687      C3445   1.158   1_455  T
C1689      C1694   1.416       .  A
C1689      C3450   1.414       .  A
C1690      C1691   1.422       .  A
C1690      C3449   1.414   1_455  A
C1690      H3455   1.084       .  S
C1691      C1692   1.416       .  A
C1691      C1698   1.441       .  S
C1692      C1693   1.410       .  A
C1693      C3454   1.418   1_455  A
C1693      H1696   1.085       .  S
C1694      C3453   1.417       .  A
C1694      C1697   1.438       .  S
H1695      C3450   1.084       .  S
C1697      N1699   1.156       .  T
C1698      N1700   1.157       .  T
C1701      C1702   1.411       .  A
C1701      C1706   1.403       .  A
C1702      C1703   1.402       .  A
C1702      H1707   1.084       .  S
C1703      C1704   1.411       .  A
C1703      C1710   1.444       .  S
C1704      C1705   1.419       .  A
C1705      C1706   1.404       .  A
C1705      H1708   1.084       .  S
C1706      C1709   1.444       .  S
C1709      N1711   1.157       .  T
C1710      N1712   1.158       .  T
C1713      C1714   1.401       .  A
C1713      C1718   1.410       .  A
C1714      C1715   1.396       .  A
C1714      H1719   1.085       .  S
C1715      C1716   1.409       .  A
C1715      C1722   1.445       .  S
C1716      C1717   1.399       .  A
C1717      C1718   1.394       .  A
C1717      H1720   1.085       .  S
C1718      C1721   1.446       .  S
C1721      N1723   1.157       .  T
C1722      N1724   1.157       .  T
C1725      C1726   1.413       .  A
C1725      C1730   1.411       .  A
C1726      C1727   1.402       .  A
C1726      H1731   1.085       .  S
C1727      C1728   1.405       .  A
C1727      C1734   1.444       .  S
C1728      C1729   1.410       .  A
C1729      C1730   1.410       .  A
C1729      H1732   1.080       .  S
C1730      C1733   1.442       .  S
C1733      N1735   1.157       .  T
C1734      N1736   1.157       .  T
C1737      C1738   1.398       .  A
C1737      C1742   1.410       .  A
C1738      C1739   1.400       .  A
C1738      H1743   1.084       .  S
C1739      C1740   1.420       .  A
C1739      C1746   1.443       .  S
C1740      C1741   1.408       .  A
C1741      C1742   1.403       .  A
C1741      H1744   1.084       .  S
C1742      C1745   1.444       .  S
C1745      N1747   1.157       .  T
C1746      N1748   1.157       .  T
C1749      C1750   1.380       .  A
C1749      C1754   1.428       .  A
C1750      C1751   1.390       .  A
C1750      H1755   1.088       .  S
C1751      C1752   1.445       .  A
C1751      C1758   1.446       .  S
C1752      C1753   1.400       .  A
C1753      C1754   1.421       .  A
C1753      H1756   1.084       .  S
C1754      C1757   1.433       .  S
C1757      N1759   1.154       .  T
C1758      N1760   1.157       .  T
O1761     Zr1773   2.509       .  S
O1761      C1763   1.300       .  A
O1762     Zr1799   2.363       .  S
O1762      C1763   1.277       .  A
C1763      C3497   1.469       .  S
O1764     Zr1776   2.457       .  S
O1764      C1766   1.288       .  A
O1765     Zr1800   2.505       .  S
O1765      C1766   1.301       .  A
C1766      C3449   1.523       .  S
O1767     Zr1776   2.380       .  S
O1767      C1769   1.266       .  A
O1768     Zr1799   2.519       .  S
O1768      C1769   1.295       .  A
C1769      C3509   1.486       .  S
O1770     Zr1773   2.420       .  S
O1770      C1772   1.284       .  A
O1771     Zr1800   2.426       .  S
O1771      C1772   1.288       .  A
C1772      C3476   1.457       .  S
Zr1773     O1774   2.445       .  S
Zr1773     O1775   2.435       .  S
Zr1773     O1779   2.335       .  S
Zr1773     O1780   2.433       .  S
Zr1773     O1803   2.366       .  S
Zr1773     O1805   2.354       .  S
O1774      H1817   0.990       .  S
O1775      H1816   0.990       .  S
O1775      H1820   0.990       .  S
Zr1776     O1777   2.443       .  S
Zr1776     O1778   2.432       .  S
Zr1776     O1780   2.372       .  S
Zr1776     O1779   2.403       .  S
Zr1776     O1804   2.398       .  S
Zr1776     O1806   2.336       .  S
O1777      H1818   0.989       .  S
O1777      H1821   0.988       .  S
O1778      H1811   0.990       .  S
O1779     Zr1799   2.393       .  S
O1780     Zr1800   2.399       .  S
O1780      H1807   0.966       .  S
O1781     Zr1793   2.448       .  S
O1781      C1783   1.290       .  A
O1782     Zr1800   2.408       .  S
O1782      C1783   1.285       .  A
C1783      C3425   1.478       .  S
O1784     Zr1796   2.402       .  S
O1784      C1786   1.276       .  A
O1785     Zr1799   2.467       .  S
O1785      C1786   1.295       .  A
C1786      C3461   1.484       .  S
O1787     Zr1796   2.329       .  S
O1787      C1789   1.266       .  A
O1788     Zr1800   2.483       .  S
O1788      C1789   1.298       .  A
C1789      C3440   1.459       .  S
O1790     Zr1793   2.409       .  S
O1790      C1792   1.283       .  A
O1791     Zr1799   2.494       .  S
O1791      C1792   1.300       .  A
C1792      C3485   1.498       .  S
Zr1793     O1794   2.436       .  S
Zr1793     O1795   2.434       .  S
Zr1793     O1801   2.349       .  S
Zr1793     O1802   2.366       .  S
Zr1793     O1805   2.359       .  S
Zr1793     O1803   2.360       .  S
O1794      H1814   0.990       .  S
O1794      H1819   0.990       .  S
O1795      H1815   0.988       .  S
Zr1796     O1797   2.436       .  S
Zr1796     O1798   2.434       .  S
Zr1796     O1802   2.342       .  S
Zr1796     O1801   2.389       .  S
Zr1796     O1806   2.375       .  S
Zr1796     O1804   2.342       .  S
O1797      H1813   0.990       .  S
O1798      H1812   0.990       .  S
O1798      H1822   0.989       .  S
Zr1799     O1802   2.368       .  S
Zr1799     O1804   2.409       .  S
Zr1799     O1805   2.398       .  S
Zr1800     O1801   2.400       .  S
Zr1800     O1803   2.412       .  S
Zr1800     O1806   2.379       .  S
O1801      H1809   0.964       .  S
O1804      H1808   0.966       .  S
O1805      H1810   0.966       .  S
O1823     Zr1835   2.449   1_545  S
O1823      C1825   1.289       .  A
O1824     Zr1861   2.379   1_545  S
O1824      C1825   1.278       .  A
C1825      C3473   1.459       .  S
O1826     Zr1838   2.458       .  S
O1826      C1828   1.293       .  A
O1827     Zr1862   2.389       .  S
O1827      C1828   1.278       .  A
C1828      C3353   1.489       .  S
O1829     Zr1838   2.372       .  S
O1829      C1831   1.274       .  A
O1830     Zr1861   2.513       .  S
O1830      C1831   1.305       .  A
C1831      C3392   1.499       .  S
O1832     Zr1835   2.360       .  S
O1832      C1834   1.273       .  A
O1833     Zr1862   2.563       .  S
O1833      C1834   1.313       .  A
C1834      C3368   1.505       .  S
Zr1835     O1836   2.434   1_565  S
Zr1835     O1837   2.438       .  S
Zr1835     O1841   2.336       .  S
Zr1835     O1842   2.397       .  S
Zr1835     O1865   2.383       .  S
Zr1835     O1867   2.334       .  S
O1836      H1879   0.990       .  S
O1837      H1878   0.990   1_565  S
O1837      H1882   0.990       .  S
Zr1838     O1839   2.436       .  S
Zr1838     O1840   2.437       .  S
Zr1838     O1842   2.345       .  S
Zr1838     O1841   2.378       .  S
Zr1838     O1866   2.383       .  S
Zr1838     O1868   2.322       .  S
O1839      H1880   0.990       .  S
O1839      H1883   0.990       .  S
O1840      H1873   0.990       .  S
O1841     Zr1861   2.383       .  S
O1842     Zr1862   2.391       .  S
O1842      H1869   0.966       .  S
O1843     Zr1855   2.350       .  S
O1843      C1845   1.269       .  A
O1844     Zr1862   2.441       .  S
O1844      C1845   1.287       .  A
C1845      C3377   1.448       .  S
O1846     Zr1858   2.590       .  S
O1846      C1848   1.315       .  A
O1847     Zr1861   2.297       .  S
O1847      C1848   1.267       .  A
C1848      C3401   1.507       .  S
O1849     Zr1858   2.410       .  S
O1849      C1851   1.284       .  A
O1850     Zr1862   2.486       .  S
O1850      C1851   1.301       .  A
C1851      C3464   1.498       .  S
O1852     Zr1855   2.365       .  S
O1852      C1854   1.258       .  A
O1853     Zr1861   2.551       .  S
O1853      C1854   1.301       .  A
C1854      C3413   1.515       .  S
Zr1855     O1856   2.442       .  S
Zr1855     O1857   2.434       .  S
Zr1855     O1863   2.350       .  S
Zr1855     O1864   2.375       .  S
Zr1855     O1867   2.380       .  S
Zr1855     O1865   2.347       .  S
O1856      H1876   0.989       .  S
O1856      H1881   0.990       .  S
O1857      H1877   0.990       .  S
Zr1858     O1859   2.434       .  S
Zr1858     O1860   2.437       .  S
Zr1858     O1864   2.324       .  S
Zr1858     O1863   2.423       .  S
Zr1858     O1868   2.407       .  S
Zr1858     O1866   2.322       .  S
O1859      H1875   0.990       .  S
O1860      H1874   0.990       .  S
O1860      H1884   0.990       .  S
Zr1861     O1864   2.355       .  S
Zr1861     O1866   2.389       .  S
Zr1861     O1867   2.373       .  S
Zr1862     O1863   2.403       .  S
Zr1862     O1865   2.376       .  S
Zr1862     O1868   2.408       .  S
O1863      H1871   0.965       .  S
O1866      H1870   0.965       .  S
O1867      H1872   0.966       .  S
O1885     Zr1897   2.418       .  S
O1885      C1887   1.285       .  A
O1886     Zr1923   2.408       .  S
O1886      C1887   1.285       .  A
C1887      C3317   1.461       .  S
O1888     Zr1900   2.481       .  S
O1888      C1890   1.298       .  A
O1889     Zr1924   2.420       .  S
O1889      C1890   1.286       .  A
C1890      C3296   1.502       .  S
O1891     Zr1900   2.458       .  S
O1891      C1893   1.290       .  A
O1892     Zr1923   2.512       .  S
O1892      C1893   1.304       .  A
C1893      C3452   1.517       .  S
O1894     Zr1897   2.376       .  S
O1894      C1896   1.263       .  A
O1895     Zr1924   2.556       .  S
O1895      C1896   1.310       .  A
C1896      C3284   1.517       .  S
Zr1897     O1898   2.434       .  S
Zr1897     O1899   2.444       .  S
Zr1897     O1903   2.360       .  S
Zr1897     O1904   2.400       .  S
Zr1897     O1927   2.365       .  S
Zr1897     O1929   2.324       .  S
O1898      H1941   0.990       .  S
O1899      H1940   0.989       .  S
O1899      H1944   0.988       .  S
Zr1900     O1901   2.435       .  S
Zr1900     O1902   2.435       .  S
Zr1900     O1904   2.369       .  S
Zr1900     O1903   2.379       .  S
Zr1900     O1928   2.376       .  S
Zr1900     O1930   2.363       .  S
O1901      H1942   0.990       .  S
O1901      H1945   0.990       .  S
O1902      H1935   0.990       .  S
O1903     Zr1923   2.378       .  S
O1904     Zr1924   2.408       .  S
O1904      H1931   0.966       .  S
O1905     Zr1917   2.401       .  S
O1905      C1907   1.276       .  A
O1906     Zr1924   2.469       .  S
O1906      C1907   1.296       .  A
C1907      C3389   1.498       .  S
O1908     Zr1920   2.586       .  S
O1908      C1910   1.313       .  A
O1909     Zr1923   2.331       .  S
O1909      C1910   1.261       .  A
C1910      C3341   1.503       .  S
O1911     Zr1920   2.440   1_565  S
O1911      C1913   1.289       .  A
O1912     Zr1924   2.514   1_565  S
O1912      C1913   1.306       .  A
C1913      C3308   1.501       .  S
O1914     Zr1917   2.386       .  S
O1914      C1916   1.257       .  A
O1915     Zr1923   2.566       .  S
O1915      C1916   1.299       .  A
C1916      C3329   1.509       .  S
Zr1917     O1918   2.454       .  S
Zr1917     O1919   2.439       .  S
Zr1917     O1925   2.357       .  S
Zr1917     O1926   2.397       .  S
Zr1917     O1929   2.386       .  S
Zr1917     O1927   2.330       .  S
O1918      H1938   0.990       .  S
O1918      H1943   0.990       .  S
O1919      H1939   0.989       .  S
Zr1920     O1921   2.434   1_545  S
Zr1920     O1922   2.434       .  S
Zr1920     O1926   2.323       .  S
Zr1920     O1925   2.417       .  S
Zr1920     O1930   2.409       .  S
Zr1920     O1928   2.345       .  S
O1921      H1937   0.990   1_565  S
O1922      H1936   0.990       .  S
O1922      H1946   0.990       .  S
Zr1923     O1926   2.383       .  S
Zr1923     O1928   2.388       .  S
Zr1923     O1929   2.375       .  S
Zr1924     O1925   2.393       .  S
Zr1924     O1927   2.370       .  S
Zr1924     O1930   2.417       .  S
O1925      H1933   0.962       .  S
O1928      H1932   0.965       .  S
O1929      H1934   0.963       .  S
O1947     Zr1959   2.383       .  S
O1947      C1949   1.276       .  A
O1948     Zr1985   2.559       .  S
O1948      C1949   1.312       .  A
C1949      C3233   1.517       .  S
O1950     Zr1962   2.380       .  S
O1950      C1952   1.265       .  A
O1951     Zr1986   2.547       .  S
O1951      C1952   1.300       .  A
C1952      C3257   1.526       .  S
O1953     Zr1962   2.356       .  S
O1953      C1955   1.254       .  A
O1954     Zr1985   2.458       .  S
O1954      C1955   1.269       .  A
C1955      C3488   1.490       .  S
O1956     Zr1959   2.418       .  S
O1956      C1958   1.282       .  A
O1957     Zr1986   2.494       .  S
O1957      C1958   1.301       .  A
C1958      C3305   1.502       .  S
Zr1959     O1960   2.433       .  S
Zr1959     O1961   2.433       .  S
Zr1959     O1965   2.369       .  S
Zr1959     O1966   2.366       .  S
Zr1959     O1989   2.346       .  S
Zr1959     O1991   2.400       .  S
O1960      H2003   0.990       .  S
O1961      H2002   0.989       .  S
O1961      H2006   0.990       .  S
Zr1962     O1963   2.430       .  S
Zr1962     O1964   2.436       .  S
Zr1962     O1966   2.405       .  S
Zr1962     O1965   2.376       .  S
Zr1962     O1990   2.368       .  S
Zr1962     O1992   2.381       .  S
O1963      H2004   0.989       .  S
O1963      H2007   0.989       .  S
O1964      H1997   0.990       .  S
O1965     Zr1985   2.405       .  S
O1966     Zr1986   2.388       .  S
O1966      H1993   0.966       .  S
O1967     Zr1979   2.377       .  S
O1967      C1969   1.275       .  A
O1968     Zr1986   2.456       .  S
O1968      C1969   1.293       .  A
C1969      C3380   1.451       .  S
O1970     Zr1982   2.422       .  S
O1970      C1972   1.278       .  A
O1971     Zr1985   2.420       .  S
O1971      C1972   1.288       .  A
C1972      C3320   1.473       .  S
O1973     Zr1982   2.565       .  S
O1973      C1975   1.312       .  A
O1974     Zr1986   2.357       .  S
O1974      C1975   1.276       .  A
C1975      C3269   1.499       .  S
O1976     Zr1979   2.457       .  S
O1976      C1978   1.290       .  A
O1977     Zr1985   2.440       .  S
O1977      C1978   1.288       .  A
C1978      C3245   1.509       .  S
Zr1979     O1980   2.442       .  S
Zr1979     O1981   2.434       .  S
Zr1979     O1987   2.384       .  S
Zr1979     O1988   2.323       .  S
Zr1979     O1991   2.372       .  S
Zr1979     O1989   2.384       .  S
O1980      H2000   0.990       .  S
O1980      H2005   0.990       .  S
O1981      H2001   0.990       .  S
Zr1982     O1983   2.435       .  S
Zr1982     O1984   2.435       .  S
Zr1982     O1988   2.408       .  S
Zr1982     O1987   2.328       .  S
Zr1982     O1992   2.338       .  S
Zr1982     O1990   2.417       .  S
O1983      H1999   0.990       .  S
O1984      H1998   0.990       .  S
O1984      H2008   0.990       .  S
Zr1985     O1988   2.419       .  S
Zr1985     O1990   2.487       .  S
Zr1985     O1991   2.385       .  S
Zr1986     O1987   2.411       .  S
Zr1986     O1989   2.385       .  S
Zr1986     O1992   2.383       .  S
O1987      H1995   0.965       .  S
O1990      H1994   0.968       .  S
O1991      H1996   0.966       .  S
O2009     Zr2021   2.337       .  S
O2009      C2011   1.253       .  A
O2010     Zr2047   2.571       .  S
O2010      C2011   1.305       .  A
C2011      C3281   1.511       .  S
O2012     Zr2024   2.412   1_556  S
O2012      C2014   1.283       .  A
O2013     Zr2048   2.460       .  S
O2013      C2014   1.295       .  A
C2014      C3212   1.465       .  S
O2015     Zr2024   2.482       .  S
O2015      C2017   1.290       .  A
O2016     Zr2047   2.354       .  S
O2016      C2017   1.273       .  A
C2017      C3428   1.460       .  S
O2018     Zr2021   2.368   1_556  S
O2018      C2020   1.273       .  A
O2019     Zr2048   2.468       .  S
O2019      C2020   1.295       .  A
C2020      C3185   1.468       .  S
Zr2021     O2022   2.442       .  S
Zr2021     O2023   2.445       .  S
Zr2021     O2027   2.331       .  S
Zr2021     O2028   2.328       .  S
Zr2021     O2051   2.333   1_554  S
Zr2021     O2053   2.369       .  S
O2022      H2065   0.990       .  S
O2023      H2064   0.989       .  S
O2023      H2068   0.988       .  S
Zr2024     O2025   2.445       .  S
Zr2024     O2026   2.433       .  S
Zr2024     O2028   2.400       .  S
Zr2024     O2027   2.369       .  S
Zr2024     O2052   2.354       .  S
Zr2024     O2054   2.350   1_554  S
O2025      H2066   0.990       .  S
O2025      H2069   0.991       .  S
O2026      H2059   0.990       .  S
O2027     Zr2047   2.318       .  S
O2028     Zr2048   2.422   1_554  S
O2028      H2055   0.964       .  S
O2029     Zr2041   2.348       .  S
O2029      C2031   1.269       .  A
O2030     Zr2048   2.526       .  S
O2030      C2031   1.306       .  A
C2031      C3176   1.481       .  S
O2032     Zr2044   2.404       .  S
O2032      C2034   1.275       .  A
O2033     Zr2047   2.432       .  S
O2033      C2034   1.287   1_554  A
C2034      C3221   1.474   1_556  S
O2035     Zr2044   2.470       .  S
O2035      C2037   1.295       .  A
O2036     Zr2048   2.443       .  S
O2036      C2037   1.291       .  A
C2037      C3161   1.500       .  S
O2038     Zr2041   2.361       .  S
O2038      C2040   1.272   1_556  A
O2039     Zr2047   2.470       .  S
O2039      C2040   1.294       .  A
C2040      C3197   1.482   1_554  S
Zr2041     O2042   2.441       .  S
Zr2041     O2043   2.434       .  S
Zr2041     O2049   2.387       .  S
Zr2041     O2050   2.360       .  S
Zr2041     O2053   2.367   1_556  S
Zr2041     O2051   2.364       .  S
O2042      H2062   0.989       .  S
O2042      H2067   0.990       .  S
O2043      H2063   0.990       .  S
Zr2044     O2045   2.431       .  S
Zr2044     O2046   2.439       .  S
Zr2044     O2050   2.392       .  S
Zr2044     O2049   2.354       .  S
Zr2044     O2054   2.366       .  S
Zr2044     O2052   2.405   1_556  S
O2045      H2061   0.990       .  S
O2046      H2060   0.988       .  S
O2046      H2070   0.990       .  S
Zr2047     O2050   2.369   1_554  S
Zr2047     O2052   2.426       .  S
Zr2047     O2053   2.374       .  S
Zr2048     O2049   2.393       .  S
Zr2048     O2051   2.407       .  S
Zr2048     O2054   2.423       .  S
O2049      H2057   0.965       .  S
O2052      H2056   0.966       .  S
O2053      H2058   0.966       .  S
O2071     Zr2083   2.366       .  S
O2071      C2073   1.264       .  A
O2072     Zr2109   2.614       .  S
O2072      C2073   1.314       .  A
C2073      C3236   1.542       .  S
O2074     Zr2086   2.374   1_556  S
O2074      C2076   1.277       .  A
O2075     Zr2110   2.485       .  S
O2075      C2076   1.301       .  A
C2076      C3200   1.485       .  S
O2077     Zr2086   2.540       .  S
O2077      C2079   1.307       .  A
O2078     Zr2109   2.319       .  S
O2078      C2079   1.272       .  A
C2079      C3356   1.474       .  S
O2080     Zr2083   2.411   1_556  S
O2080      C2082   1.280       .  A
O2081     Zr2110   2.435       .  S
O2081      C2082   1.288       .  A
C2082      C3137   1.468       .  S
Zr2083     O2084   2.436       .  S
Zr2083     O2085   2.437       .  S
Zr2083     O2089   2.382       .  S
Zr2083     O2090   2.359   1_554  S
Zr2083     O2113   2.344   1_554  S
Zr2083     O2115   2.392       .  S
O2084      H2127   0.990       .  S
O2085      H2126   0.990   1_554  S
O2085      H2130   0.990       .  S
Zr2086     O2087   2.435       .  S
Zr2086     O2088   2.437       .  S
Zr2086     O2090   2.423   1_554  S
Zr2086     O2089   2.316       .  S
Zr2086     O2114   2.330       .  S
Zr2086     O2116   2.398   1_554  S
O2087      H2128   0.990       .  S
O2087      H2131   0.990       .  S
O2088      H2121   0.990       .  S
O2089     Zr2109   2.359       .  S
O2090     Zr2110   2.413       .  S
O2090      H2117   0.966       .  S
O2091     Zr2103   2.342       .  S
O2091      C2093   1.268       .  A
O2092     Zr2110   2.519       .  S
O2092      C2093   1.304       .  A
C2093      C3125   1.477       .  S
O2094     Zr2106   2.380       .  S
O2094      C2096   1.273       .  A
O2095     Zr2109   2.537       .  S
O2095      C2096   1.307   1_554  A
C2096      C3149   1.504       .  S
O2097     Zr2106   2.483       .  S
O2097      C2099   1.295       .  A
O2098     Zr2110   2.442       .  S
O2098      C2099   1.289       .  A
C2099      C3116   1.505       .  S
O2100     Zr2103   2.415       .  S
O2100      C2102   1.281       .  A
O2101     Zr2109   2.436       .  S
O2101      C2102   1.290   1_554  A
C2102      C3209   1.470       .  S
Zr2103     O2104   2.439       .  S
Zr2103     O2105   2.437       .  S
Zr2103     O2111   2.408       .  S
Zr2103     O2112   2.329       .  S
Zr2103     O2115   2.341   1_556  S
Zr2103     O2113   2.362       .  S
O2104      H2124   0.989       .  S
O2104      H2129   0.990       .  S
O2105      H2125   0.990       .  S
Zr2106     O2107   2.434       .  S
Zr2106     O2108   2.435       .  S
Zr2106     O2112   2.382       .  S
Zr2106     O2111   2.349       .  S
Zr2106     O2116   2.332       .  S
Zr2106     O2114   2.390   1_556  S
O2107      H2123   0.990       .  S
O2108      H2122   0.990       .  S
O2108      H2132   0.990       .  S
Zr2109     O2112   2.380   1_554  S
Zr2109     O2114   2.407       .  S
Zr2109     O2115   2.391       .  S
Zr2110     O2111   2.391       .  S
Zr2110     O2113   2.393       .  S
Zr2110     O2116   2.400       .  S
O2111      H2119   0.966       .  S
O2114      H2118   0.966       .  S
O2115      H2120   0.966       .  S
O2133     Zr2145   2.362       .  S
O2133      C2135   1.258       .  A
O2134     Zr2171   2.559       .  S
C2135      C3365   1.517       .  S
O2136     Zr2148   2.446   1_556  S
O2136      C2138   1.293       .  A
O2137     Zr2172   2.451       .  S
O2137      C2138   1.294       .  A
C2138      C3089   1.502       .  S
O2139     Zr2148   2.606       .  S
O2139      C2141   1.322   1_565  A
O2140     Zr2171   2.315       .  S
O2140      C2141   1.270       .  A
C2141      C3293   1.499       .  S
O2142     Zr2145   2.365   1_566  S
O2142      C2144   1.272       .  A
O2143      C2144   1.306       .  A
C2144      C3152   1.519       .  S
Zr2145     O2146   2.434   1_545  S
Zr2145     O2147   2.435       .  S
Zr2145     O2175   2.341   1_554  S
Zr2145     O2177   2.369       .  S
O2146      H2189   0.990       .  S
O2147      H2188   0.990       .  S
O2147      H2192   0.990       .  S
Zr2148     O2149   2.433       .  S
Zr2148     O2150   2.437       .  S
Zr2148     O2152   2.431   1_554  S
Zr2148     O2151   2.313   1_565  S
Zr2148     O2176   2.332   1_565  S
Zr2148     O2178   2.400   1_554  S
O2149      H2190   0.990       .  S
O2149      H2193   0.990       .  S
O2150      H2183   0.990       .  S
O2151     Zr2171   2.360       .  S
O2152     Zr2172   2.411       .  S
O2153      C2155   1.269       .  A
O2154      C2155   1.310       .  A
C2155      C3068   1.488       .  S
O2156     Zr2168   2.385       .  S
O2156      C2158   1.277       .  A
O2157     Zr2171   2.500       .  S
O2157      C2158   1.302   1_554  A
C2158      C3188   1.480       .  S
O2159     Zr2168   2.446       .  S
O2159      C2161   1.290   1_545  A
O2160     Zr2172   2.475       .  S
O2160      C2161   1.295       .  A
C2161      C3077   1.502       .  S
O2162     Zr2165   2.433       .  S
O2162      C2164   1.285   1_556  A
O2163     Zr2171   2.404       .  S
O2163      C2164   1.283       .  A
C2164      C3104   1.453       .  S
Zr2165     O2166   2.431       .  S
Zr2165     O2173   2.396       .  S
Zr2165     O2174   2.339       .  S
O2166      H2186   0.989       .  S
O2167      H2187   0.990       .  S
Zr2168     O2169   2.437       .  S
Zr2168     O2170   2.435       .  S
Zr2168     O2174   2.379       .  S
Zr2168     O2173   2.350       .  S
Zr2168     O2178   2.343   1_545  S
Zr2168     O2176   2.384   1_556  S
O2169      H2185   0.990       .  S
O2170      H2184   0.990   1_545  S
O2170      H2194   0.990       .  S
Zr2171     O2174   2.380   1_554  S
Zr2171     O2176   2.392       .  S
Zr2172     O2173   2.404   1_565  S
Zr2172     O2178   2.420       .  S
O2173      H2181   0.966       .  S
O2176      H2180   0.966       .  S
O2177      H2182   0.965       .  S
O2195     Zr2207   2.400       .  S
O2195      C2197   1.276       .  A
O2196      C2197   1.297       .  A
C2197      C3248   1.501       .  S
O2198     Zr2210   2.438   1_556  S
O2199     Zr2234   2.465       .  S
O2199      C2200   1.296       .  A
C2200      C3092   1.479       .  S
O2201     Zr2210   2.578       .  S
O2201      C2203   1.313       .  A
O2202     Zr2233   2.268       .  S
O2202      C2203   1.253       .  A
C2203      C3437   1.478       .  S
O2204     Zr2207   2.435   1_556  S
O2204      C2206   1.287       .  A
O2205     Zr2234   2.403       .  S
O2205      C2206   1.282       .  A
C2206      C3140   1.465       .  S
Zr2207     O2208   2.436       .  S
Zr2207     O2209   2.435       .  S
Zr2207     O2213   2.382       .  S
Zr2207     O2214   2.349   1_554  S
Zr2207     O2237   2.360   1_554  S
Zr2207     O2239   2.381       .  S
O2208      H2251   0.990       .  S
O2209      H2250   0.990       .  S
O2209      H2254   0.990       .  S
Zr2210     O2211   2.436       .  S
Zr2210     O2212   2.436       .  S
Zr2210     O2238   2.323       .  S
Zr2210     O2240   2.399   1_554  S
O2211      H2255   0.990       .  S
O2212      H2245   0.990       .  S
O2214     Zr2234   2.419       .  S
O2214      H2241   0.965   1_556  S
O2215     Zr2227   2.359       .  S
O2215      C2217   1.271       .  A
O2216     Zr2234   2.557       .  S
O2216      C2217   1.313       .  A
C2217      C3053   1.497       .  S
O2218     Zr2230   2.388       .  S
O2218      C2220   1.279   1_556  A
O2219     Zr2233   2.439       .  S
O2219      C2220   1.288       .  A
C2220      C3224   1.457       .  S
O2221     Zr2230   2.451       .  S
O2221      C2223   1.290       .  A
O2222     Zr2234   2.419       .  S
C2223      C3041   1.499       .  S
O2224     Zr2227   2.422       .  S
O2224      C2226   1.285   1_556  A
O2225     Zr2233   2.384   1_455  S
C2226      C3101   1.454       .  S
Zr2227     O2228   2.437       .  S
Zr2227     O2229   2.435       .  S
Zr2227     O2235   2.398       .  S
Zr2227     O2239   2.349   1_556  S
Zr2227     O2237   2.375       .  S
O2228      H2248   0.990       .  S
O2228      H2253   0.990       .  S
O2229      H2249   0.990       .  S
Zr2230     O2231   2.434       .  S
Zr2230     O2232   2.437       .  S
Zr2230     O2236   2.379       .  S
Zr2230     O2240   2.340       .  S
Zr2230     O2238   2.362   1_556  S
O2231      H2247   0.990       .  S
O2232      H2246   0.990       .  S
O2232      H2256   0.990       .  S
Zr2233     O2236   2.367   1_554  S
Zr2233     O2238   2.388       .  S
Zr2234     O2235   2.381       .  S
Zr2234     O2237   2.382       .  S
O2235      H2243   0.965       .  S
O2238      H2242   0.965       .  S
O2239      H2244   0.966       .  S
O2257     Zr2269   2.572       .  S
O2257      C2259   1.308       .  A
O2258     Zr2295   2.336       .  S
O2258      C2259   1.272       .  A
C2259      C3164   1.506       .  S
O2260     Zr2272   2.415       .  S
O2260      C2262   1.282       .  A
O2261     Zr2296   2.395       .  S
O2261      C2262   1.279       .  A
C2262      C2993   1.480       .  S
O2263     Zr2272   2.368       .  S
O2263      C2265   1.260       .  A
O2264     Zr2295   2.553       .  S
O2264      C2265   1.297       .  A
C2265      C3065   1.506       .  S
O2266     Zr2269   2.420       .  S
O2266      C2268   1.284       .  A
O2267     Zr2296   2.385       .  S
O2267      C2268   1.280       .  A
C2268      C3005   1.429   1_545  S
Zr2269     O2270   2.449       .  S
Zr2269     O2271   2.439       .  S
Zr2269     O2275   2.343       .  S
Zr2269     O2276   2.440       .  S
Zr2269     O2299   2.394       .  S
Zr2269     O2301   2.318       .  S
O2270      H2313   0.990       .  S
O2271      H2312   0.990       .  S
O2271      H2316   0.990       .  S
Zr2272     O2273   2.434       .  S
Zr2272     O2274   2.434       .  S
Zr2272     O2276   2.351       .  S
Zr2272     O2275   2.404       .  S
Zr2272     O2300   2.371       .  S
Zr2272     O2302   2.316       .  S
O2273      H2314   0.987       .  S
O2273      H2317   0.988       .  S
O2274      H2307   0.990       .  S
O2275     Zr2295   2.362       .  S
O2276     Zr2296   2.400       .  S
O2276      H2303   0.965       .  S
O2277     Zr2289   2.522       .  S
O2277      C2279   1.302       .  A
O2278     Zr2296   2.430       .  S
O2278      C2279   1.285       .  A
C2279      C2969   1.513       .  S
O2280     Zr2292   2.442       .  S
O2280      C2282   1.286       .  A
O2281     Zr2295   2.442       .  S
O2281      C2282   1.291       .  A
C2282      C3017   1.481       .  S
O2283     Zr2292   2.350       .  S
O2283      C2285   1.270       .  A
O2284     Zr2296   2.464       .  S
O2284      C2285   1.295       .  A
C2285      C2981   1.463       .  S
O2286     Zr2289   2.389       .  S
O2286      C2288   1.278       .  A
O2287     Zr2295   2.418       .  S
O2287      C2288   1.290       .  A
C2288      C3032   1.467       .  S
Zr2289     O2290   2.435       .  S
Zr2289     O2291   2.437       .  S
Zr2289     O2297   2.357       .  S
Zr2289     O2298   2.406       .  S
Zr2289     O2301   2.402       .  S
Zr2289     O2299   2.336       .  S
O2290      H2310   0.990       .  S
O2290      H2315   0.990       .  S
O2291      H2311   0.990       .  S
Zr2292     O2293   2.433       .  S
Zr2292     O2294   2.440       .  S
Zr2292     O2298   2.331       .  S
Zr2292     O2297   2.408       .  S
Zr2292     O2302   2.372       .  S
Zr2292     O2300   2.350       .  S
O2293      H2309   0.990       .  S
O2294      H2308   0.990       .  S
O2294      H2318   0.990       .  S
Zr2295     O2298   2.391       .  S
Zr2295     O2300   2.365       .  S
Zr2295     O2301   2.399       .  S
Zr2296     O2297   2.385       .  S
Zr2296     O2299   2.389       .  S
Zr2296     O2302   2.362       .  S
O2297      H2305   0.966       .  S
O2300      H2304   0.966       .  S
O2301      H2306   0.966       .  S
O2319     Zr2331   2.560       .  S
O2319      C2321   1.311       .  A
O2320     Zr2357   2.374       .  S
O2320      C2321   1.278       .  A
C2321      C3113   1.508       .  S
O2322     Zr2334   2.405       .  S
O2322      C2324   1.279       .  A
O2323     Zr2358   2.407       .  S
O2323      C2324   1.283       .  A
O2325     Zr2334   2.394       .  S
O2325      C2327   1.266       .  A
O2326     Zr2357   2.503       .  S
O2326      C2327   1.294       .  A
C2327      C3044   1.492       .  S
O2328     Zr2331   2.451       .  S
O2328      C2330   1.292       .  A
O2329     Zr2358   2.424       .  S
O2329      C2330   1.289       .  A
C2330      C3020   1.481       .  S
Zr2331     O2332   2.434       .  S
Zr2331     O2333   2.435       .  S
Zr2331     O2337   2.352       .  S
Zr2331     O2338   2.415       .  S
Zr2331     O2361   2.387       .  S
Zr2331     O2363   2.351       .  S
O2332      H2375   0.990       .  S
O2333      H2374   0.990       .  S
O2333      H2378   0.990       .  S
Zr2334     O2335   2.436       .  S
Zr2334     O2336   2.437       .  S
Zr2334     O2338   2.361       .  S
Zr2334     O2337   2.380       .  S
Zr2334     O2362   2.378       .  S
Zr2334     O2364   2.343       .  S
O2335      H2376   0.990       .  S
O2335      H2379   0.990       .  S
O2336      H2369   0.990       .  S
O2337     Zr2357   2.371       .  S
O2338     Zr2358   2.410       .  S
O2338      H2365   0.965       .  S
O2339     Zr2351   2.530       .  S
O2339      C2341   1.308       .  A
O2340     Zr2358   2.434       .  S
O2340      C2341   1.286       .  A
C2341      C2921   1.534       .  S
O2342     Zr2354   2.433       .  S
O2342      C2344   1.284       .  A
O2343     Zr2357   2.366       .  S
O2343      C2344   1.276       .  A
C2344      C3008   1.432       .  S
O2345     Zr2354   2.410       .  S
O2345      C2347   1.271       .  A
O2346     Zr2358   2.481       .  S
O2346      C2347   1.293       .  A
C2347      C2933   1.480       .  S
O2348     Zr2351   2.454       .  S
O2348      C2350   1.291       .  A
O2349     Zr2357   2.460       .  S
O2349      C2350   1.296       .  A
C2350      C2957   1.513       .  S
Zr2351     O2352   2.437       .  S
Zr2351     O2353   2.433       .  S
Zr2351     O2359   2.368       .  S
Zr2351     O2360   2.395       .  S
Zr2351     O2363   2.394       .  S
Zr2351     O2361   2.345       .  S
O2352      H2372   0.990       .  S
O2352      H2377   0.990       .  S
O2353      H2373   0.990       .  S
Zr2354     O2355   2.433       .  S
Zr2354     O2356   2.440       .  S
Zr2354     O2360   2.362       .  S
Zr2354     O2359   2.402       .  S
Zr2354     O2364   2.359       .  S
Zr2354     O2362   2.365       .  S
O2355      H2371   0.990       .  S
O2356      H2370   0.990       .  S
O2356      H2380   0.990       .  S
Zr2357     O2360   2.394       .  S
Zr2357     O2362   2.390       .  S
Zr2357     O2363   2.390       .  S
Zr2358     O2359   2.402       .  S
Zr2358     O2361   2.391       .  S
Zr2358     O2364   2.377       .  S
O2359      H2367   0.966       .  S
O2362      H2366   0.965       .  S
O2363      H2368   0.966       .  S
O2381     Zr2393   2.609       .  S
O2381      C2383   1.322       .  A
O2382     Zr2419   2.310       .  S
O2382      C2383   1.265       .  A
C2383      C3056   1.505       .  S
O2384     Zr2396   2.365       .  S
O2384      C2386   1.270       .  A
O2385     Zr2420   2.404       .  S
O2385      C2386   1.283       .  A
C2386      C3029   1.462       .  S
O2387     Zr2396   2.379       .  S
O2387      C2389   1.261       .  A
O2388     Zr2419   2.544       .  S
O2388      C2389   1.295       .  A
C2389      C3173   1.513       .  S
O2390     Zr2393   2.461       .  S
O2390      C2392   1.294       .  A
O2391     Zr2420   2.382       .  S
O2391      C2392   1.282       .  A
C2392      C2912   1.461       .  S
Zr2393     O2394   2.433       .  S
Zr2393     O2395   2.435       .  S
Zr2393     O2399   2.330       .  S
Zr2393     O2400   2.425       .  S
Zr2393     O2423   2.405       .  S
Zr2393     O2425   2.332       .  S
O2394      H2437   0.990       .  S
O2395      H2436   0.990       .  S
O2395      H2440   0.990       .  S
Zr2396     O2397   2.437       .  S
Zr2396     O2398   2.436       .  S
Zr2396     O2400   2.360       .  S
Zr2396     O2399   2.380       .  S
Zr2396     O2424   2.366       .  S
Zr2396     O2426   2.342       .  S
O2397      H2438   0.990       .  S
O2397      H2441   0.989       .  S
O2398      H2431   0.990       .  S
O2399     Zr2419   2.342       .  S
O2400     Zr2420   2.405       .  S
O2400      H2427   0.965       .  S
O2401     Zr2413   2.579       .  S
O2401      C2403   1.313       .  A
O2402     Zr2420   2.438       .  S
O2402      C2403   1.288       .  A
C2403      C2885   1.553       .  S
O2404     Zr2416   2.439       .  S
O2404      C2406   1.285       .  A
O2405     Zr2419   2.380       .  S
O2405      C2406   1.278       .  A
C2406      C2897   1.449       .  S
O2407     Zr2416   2.394       .  S
O2407      C2409   1.271       .  A
O2408     Zr2420   2.476       .  S
O2408      C2409   1.291       .  A
C2409      C2873   1.470       .  S
O2410     Zr2413   2.428       .  S
O2410      C2412   1.289       .  A
O2411     Zr2419   2.392       .  S
O2411      C2412   1.281       .  A
C2412      C2945   1.466       .  S
Zr2413     O2414   2.435       .  S
Zr2413     O2415   2.434       .  S
Zr2413     O2421   2.364       .  S
Zr2413     O2422   2.404       .  S
Zr2413     O2425   2.408       .  S
Zr2413     O2423   2.327       .  S
O2414      H2434   0.990       .  S
O2414      H2439   0.990       .  S
O2415      H2435   0.990       .  S
Zr2416     O2417   2.432       .  S
Zr2416     O2418   2.439       .  S
Zr2416     O2422   2.337       .  S
Zr2416     O2421   2.410       .  S
Zr2416     O2426   2.367       .  S
Zr2416     O2424   2.364       .  S
O2417      H2433   0.990       .  S
O2418      H2432   0.990       .  S
O2418      H2442   0.990       .  S
Zr2419     O2422   2.386       .  S
Zr2419     O2424   2.363       .  S
Zr2419     O2425   2.407       .  S
Zr2420     O2421   2.380       .  S
Zr2420     O2423   2.396       .  S
Zr2420     O2426   2.368       .  S
O2421      H2429   0.966       .  S
O2424      H2428   0.966       .  S
O2425      H2430   0.966       .  S
O2443     Zr2455   2.580       .  S
O2443      C2445   1.314       .  A
O2444     Zr2481   2.327   1_565  S
O2444      C2445   1.264       .  A
C2445      C3080   1.518       .  S
O2446     Zr2458   2.433       .  S
O2446      C2448   1.283       .  A
O2447     Zr2482   2.468       .  S
O2447      C2448   1.294       .  A
C2448      C2960   1.515       .  S
O2449     Zr2458   2.392       .  S
O2449      C2451   1.262       .  A
O2450     Zr2481   2.538   1_565  S
O2450      C2451   1.293       .  A
C2451      C3128   1.511       .  S
O2452     Zr2455   2.420       .  S
O2452      C2454   1.286       .  A
O2453     Zr2482   2.405       .  S
O2453      C2454   1.286       .  A
C2454      C2900   1.455       .  S
Zr2455     O2456   2.431       .  S
Zr2455     O2457   2.436       .  S
Zr2455     O2461   2.318       .  S
Zr2455     O2462   2.435       .  S
Zr2455     O2485   2.393       .  S
Zr2455     O2487   2.329       .  S
O2456      H2499   0.990       .  S
O2457      H2498   0.990       .  S
O2457      H2502   0.990       .  S
Zr2458     O2459   2.437       .  S
Zr2458     O2460   2.434       .  S
Zr2458     O2462   2.363       .  S
Zr2458     O2461   2.395       .  S
Zr2458     O2486   2.388   1_565  S
Zr2458     O2488   2.343       .  S
O2459      H2500   0.989       .  S
O2459      H2503   0.989       .  S
O2460      H2493   0.990   1_565  S
O2461     Zr2481   2.362   1_565  S
O2462     Zr2482   2.396       .  S
O2462      H2489   0.964       .  S
O2463     Zr2475   2.531       .  S
O2463      C2465   1.304       .  A
O2464     Zr2482   2.433       .  S
O2464      C2465   1.287       .  A
C2465      C2864   1.520       .  S
O2466     Zr2478   2.436       .  S
O2466      C2468   1.286       .  A
O2467     Zr2481   2.404       .  S
O2467      C2468   1.284       .  A
C2468      C2909   1.462       .  S
O2469     Zr2478   2.334       .  S
O2469      C2471   1.269   1_545  A
O2470     Zr2482   2.454       .  S
O2470      C2471   1.292       .  A
C2471      C2849   1.444       .  S
O2472     Zr2475   2.439   1_545  S
O2472      C2474   1.290       .  A
O2473     Zr2481   2.422       .  S
O2473      C2474   1.287       .  A
C2474      C2996   1.485       .  S
Zr2475     O2476   2.441   1_565  S
Zr2475     O2477   2.434       .  S
Zr2475     O2483   2.358       .  S
Zr2475     O2484   2.398   1_565  S
Zr2475     O2487   2.384       .  S
Zr2475     O2485   2.344       .  S
O2476      H2496   0.989       .  S
O2476      H2501   0.990   1_545  S
O2477      H2497   0.990       .  S
Zr2478     O2479   2.432       .  S
Zr2478     O2480   2.437       .  S
Zr2478     O2484   2.338       .  S
Zr2478     O2483   2.404   1_545  S
Zr2478     O2488   2.378   1_545  S
Zr2478     O2486   2.333       .  S
O2479      H2495   0.990       .  S
O2480      H2494   0.990       .  S
O2480      H2504   0.990       .  S
Zr2481     O2484   2.382       .  S
Zr2481     O2486   2.381       .  S
Zr2481     O2487   2.394   1_545  S
Zr2482     O2483   2.393       .  S
Zr2482     O2485   2.400       .  S
Zr2482     O2488   2.374       .  S
O2483      H2491   0.965       .  S
O2486      H2490   0.966       .  S
O2487      H2492   0.965       .  S
O2505     Zr2517   2.356       .  S
O2505      C2507   1.271       .  A
O2506     Zr2543   2.493       .  S
O2506      C2507   1.298   1_565  A
C2507      C3332   1.468       .  S
O2508     Zr2520   2.397       .  S
O2508      C2510   1.282       .  A
O2509     Zr2544   2.447       .  S
O2509      C2510   1.288       .  A
C2510      C2837   1.473       .  S
O2511     Zr2520   2.494   1_565  S
O2511      C2513   1.298       .  A
O2512     Zr2543   2.417       .  S
O2512      C2513   1.281       .  A
C2513      C3404   1.499       .  S
O2514     Zr2517   2.462       .  S
O2514      C2516   1.290       .  A
O2515     Zr2544   2.344       .  S
O2515      C2516   1.268       .  A
C2516      C2825   1.458       .  S
Zr2517     O2518   2.434       .  S
Zr2517     O2519   2.440       .  S
Zr2517     O2523   2.404       .  S
Zr2517     O2524   2.348       .  S
Zr2517     O2547   2.334       .  S
Zr2517     O2549   2.393       .  S
O2518      H2561   0.990       .  S
O2519      H2560   0.990       .  S
O2519      H2564   0.990       .  S
Zr2520     O2521   2.434       .  S
Zr2520     O2522   2.436   1_545  S
Zr2520     O2524   2.403       .  S
Zr2520     O2523   2.364       .  S
Zr2520     O2548   2.344   1_545  S
Zr2520     O2550   2.401       .  S
O2521      H2562   0.990       .  S
O2521      H2565   0.990       .  S
O2522      H2555   0.990       .  S
O2523     Zr2543   2.374   1_545  S
O2524     Zr2544   2.374       .  S
O2524      H2551   0.966       .  S
O2525     Zr2537   2.399   1_545  S
O2525      C2527   1.271       .  A
O2526     Zr2544   2.431       .  S
O2526      C2527   1.274       .  A
C2527      C2852   1.457       .  S
O2528     Zr2540   2.464       .  S
O2528      C2530   1.295       .  A
O2529     Zr2543   2.387       .  S
O2529      C2530   1.282       .  A
C2530      C2813   1.471       .  S
O2531     Zr2540   2.643       .  S
O2531      C2533   1.324   1_565  A
O2532     Zr2544   2.289       .  S
O2532      C2533   1.252       .  A
C2533      C2972   1.535       .  S
O2534     Zr2537   2.412       .  S
O2534      C2536   1.279       .  A
O2535     Zr2543   2.387       .  S
O2535      C2536   1.277       .  A
C2536      C2801   1.442       .  S
Zr2537     O2538   2.433       .  S
Zr2537     O2539   2.434   1_565  S
Zr2537     O2545   2.365       .  S
Zr2537     O2546   2.351       .  S
Zr2537     O2549   2.334   1_565  S
Zr2537     O2547   2.378   1_565  S
O2538      H2558   0.988       .  S
O2538      H2563   0.989       .  S
O2539      H2559   0.990       .  S
Zr2540     O2541   2.434       .  S
Zr2540     O2542   2.434       .  S
Zr2540     O2546   2.423       .  S
Zr2540     O2545   2.312       .  S
Zr2540     O2550   2.346   1_565  S
Zr2540     O2548   2.424       .  S
O2541      H2557   0.990       .  S
O2542      H2556   0.990       .  S
O2542      H2566   0.990       .  S
Zr2543     O2546   2.398       .  S
Zr2543     O2548   2.404       .  S
Zr2543     O2549   2.370   1_565  S
Zr2544     O2545   2.383   1_545  S
Zr2544     O2547   2.361       .  S
Zr2544     O2550   2.374       .  S
O2545      H2553   0.959       .  S
O2548      H2552   0.966       .  S
O2549      H2554   0.965       .  S
O2567     Zr2579   2.374       .  S
O2567      C2569   1.274       .  A
O2568     Zr2605   2.508       .  S
O2568      C2569   1.301       .  A
C2569      C3260   1.483       .  S
O2570     Zr2582   2.386       .  S
O2570      C2572   1.278       .  A
O2571     Zr2606   2.427       .  S
O2571      C2572   1.287       .  A
C2572      C2789   1.478       .  S
O2573     Zr2582   2.451       .  S
O2573      C2575   1.288       .  A
O2574     Zr2605   2.428       .  S
O2574      C2575   1.287       .  A
C2575      C3500   1.494       .  S
O2576     Zr2579   2.445       .  S
O2576      C2578   1.288       .  A
O2577     Zr2606   2.365       .  S
O2577      C2578   1.275       .  A
C2578      C2816   1.466       .  S
Zr2579     O2580   2.434       .  S
Zr2579     O2581   2.435       .  S
Zr2579     O2585   2.391       .  S
Zr2579     O2586   2.353       .  S
Zr2579     O2609   2.344       .  S
Zr2579     O2611   2.384       .  S
O2580      H2623   0.990       .  S
O2581      H2622   0.990       .  S
O2581      H2626   0.990       .  S
Zr2582     O2583   2.434       .  S
Zr2582     O2584   2.431       .  S
Zr2582     O2586   2.385       .  S
Zr2582     O2585   2.366       .  S
Zr2582     O2610   2.341       .  S
Zr2582     O2612   2.380       .  S
O2583      H2624   0.990       .  S
O2583      H2627   0.990       .  S
O2584      H2617   0.990       .  S
O2585     Zr2605   2.368       .  S
O2586     Zr2606   2.371       .  S
O2586      H2613   0.966       .  S
O2587     Zr2599   2.390       .  S
O2587      C2589   1.265       .  A
O2588     Zr2606   2.462       .  S
O2588      C2589   1.278       .  A
C2589      C2876   1.476       .  S
O2590     Zr2602   2.496       .  S
O2590      C2592   1.300       .  A
O2591     Zr2605   2.386       .  S
O2591      C2592   1.282       .  A
C2592      C2828   1.471       .  S
O2593     Zr2602   2.674       .  S
O2593      C2595   1.332       .  A
O2594     Zr2606   2.318       .  S
O2594      C2595   1.258       .  A
C2595      C2924   1.544       .  S
O2596     Zr2599   2.400       .  S
O2596      C2598   1.278       .  A
O2597     Zr2605   2.424       .  S
O2597      C2598   1.285       .  A
C2598      C2780   1.469       .  S
Zr2599     O2600   2.438       .  S
Zr2599     O2601   2.432       .  S
Zr2599     O2607   2.376       .  S
Zr2599     O2608   2.351       .  S
Zr2599     O2611   2.355       .  S
Zr2599     O2609   2.385       .  S
O2600      H2620   0.988       .  S
O2600      H2625   0.989       .  S
O2601      H2621   0.990       .  S
Zr2602     O2603   2.435       .  S
Zr2602     O2604   2.435       .  S
Zr2602     O2608   2.427       .  S
Zr2602     O2607   2.316       .  S
Zr2602     O2612   2.336       .  S
Zr2602     O2610   2.428       .  S
O2603      H2619   0.990       .  S
O2604      H2618   0.990       .  S
O2604      H2628   0.990       .  S
Zr2605     O2608   2.410       .  S
Zr2605     O2610   2.414       .  S
Zr2605     O2611   2.371       .  S
Zr2606     O2607   2.403       .  S
Zr2606     O2609   2.369       .  S
Zr2606     O2612   2.369       .  S
O2607      H2615   0.961       .  S
O2610      H2614   0.966       .  S
O2611      H2616   0.966       .  S
O2629      C2631   1.253       .  A
O2630      C2631   1.320       .  A
C2631      C3512   1.518       .  S
O2632     Zr2644   2.387       .  S
O2632      C2634   1.278       .  A
O2633     Zr2668   2.448       .  S
O2633      C2634   1.292       .  A
C2634      C2777   1.464       .  S
O2635     Zr2644   2.478       .  S
O2635      C2637   1.296       .  A
O2636     Zr2667   2.419       .  S
O2636      C2637   1.280       .  A
C2637      C3344   1.507       .  S
O2638     Zr2641   2.410       .  S
O2638      C2640   1.279       .  A
O2639     Zr2668   2.381       .  S
O2639      C2640   1.275       .  A
C2640      C2756   1.444       .  S
Zr2641     O2642   2.435       .  S
Zr2641     O2647   2.399       .  S
Zr2641     O2648   2.338       .  S
O2642      H2685   0.990       .  S
O2643      H2684   0.990       .  S
O2643      H2688   0.987       .  S
Zr2644     O2645   2.434       .  S
Zr2644     O2646   2.435       .  S
Zr2644     O2648   2.399       .  S
Zr2644     O2647   2.369       .  S
Zr2644     O2672   2.322       .  S
Zr2644     O2674   2.400       .  S
O2645      H2686   0.990       .  S
O2645      H2689   0.990       .  S
O2646      H2679   0.990       .  S
O2647     Zr2667   2.356       .  S
O2648     Zr2668   2.358       .  S
O2648      H2675   0.966       .  S
O2649     Zr2661   2.412       .  S
O2649      C2651   1.270       .  A
O2650     Zr2668   2.446       .  S
C2651      C2984   1.474       .  S
O2652     Zr2664   2.469       .  S
O2652      C2654   1.297       .  A
O2653     Zr2667   2.425       .  S
O2653      C2654   1.290       .  A
C2654      C2765   1.481       .  S
O2655     Zr2664   2.694       .  S
O2655      C2657   1.339       .  A
O2656     Zr2668   2.282       .  S
O2656      C2657   1.259       .  A
C2657      C2888   1.542       .  S
O2658     Zr2661   2.404       .  S
O2658      C2660   1.266       .  A
O2659      C2660   1.258       .  A
C2660      C2840   1.466       .  S
Zr2661     O2662   2.448       .  S
Zr2661     O2663   2.443       .  S
Zr2661     O2670   2.324   1_655  S
Zr2661     O2673   2.365       .  S
Zr2661     O2671   2.402   1_655  S
O2662      H2682   0.988       .  S
O2662      H2687   0.989       .  S
O2663      H2683   0.990       .  S
Zr2664     O2665   2.434       .  S
Zr2664     O2666   2.434       .  S
Zr2664     O2669   2.316       .  S
Zr2664     O2674   2.321       .  S
Zr2664     O2672   2.459       .  S
O2665      H2681   0.989       .  S
O2666      H2680   0.990       .  S
O2666      H2690   0.990       .  S
Zr2667     O2672   2.442       .  S
Zr2668     O2669   2.419       .  S
Zr2668     O2674   2.376       .  S
O2669      H2677   0.965       .  S
O2672      H2676   0.966       .  S
O2673      H2678   0.967       .  S
O2691      C2693   1.271       .  A
O2692      C2693   1.302       .  A
C2693      C3416   1.476       .  S
O2694     Zr2706   2.386       .  S
O2694      C2696   1.277       .  A
O2695     Zr2730   2.424       .  S
O2695      C2696   1.286       .  A
C2696      C2804   1.441       .  S
O2697     Zr2706   2.482       .  S
O2697      C2699   1.294       .  A
O2698     Zr2729   2.449       .  S
O2698      C2699   1.288       .  A
C2699      C3272   1.523       .  S
O2700     Zr2703   2.456       .  S
O2700      C2702   1.289       .  A
O2701     Zr2730   2.358       .  S
O2701      C2702   1.273       .  A
C2702      C2768   1.471       .  S
Zr2703     O2704   2.435       .  S
Zr2703     O2709   2.400       .  S
Zr2703     O2710   2.349       .  S
Zr2703     O2733   2.344       .  S
O2704      H2747   0.990       .  S
O2705      H2746   0.990       .  S
O2705      H2750   0.990       .  S
Zr2706     O2707   2.434       .  S
Zr2706     O2708   2.434       .  S
Zr2706     O2710   2.403       .  S
Zr2706     O2709   2.364       .  S
Zr2706     O2734   2.334       .  S
Zr2706     O2736   2.393       .  S
O2707      H2748   0.990       .  S
O2707      H2751   0.990       .  S
O2708      H2741   0.990       .  S
O2709     Zr2729   2.371       .  S
O2710     Zr2730   2.379       .  S
O2710      H2737   0.966       .  S
O2711     Zr2723   2.403       .  S
O2712     Zr2730   2.465       .  S
O2712      C2713   1.284       .  A
O2714     Zr2726   2.452       .  S
O2714      C2716   1.291       .  A
O2715     Zr2729   2.397       .  S
O2715      C2716   1.283       .  A
C2716      C2753   1.450       .  S
O2717     Zr2726   2.623       .  S
O2717      C2719   1.322       .  A
O2718     Zr2730   2.300       .  S
O2718      C2719   1.264       .  A
C2719      C2861   1.527       .  S
O2720     Zr2723   2.411       .  S
O2720      C2722   1.282       .  A
O2721      C2722   1.278       .  A
C2722      C2792   1.476       .  S
Zr2723     O2724   2.438       .  S
Zr2723     O2725   2.434       .  S
Zr2723     O2735   2.352       .  S
O2724      H2744   0.988       .  S
O2724      H2749   0.990       .  S
O2725      H2745   0.990       .  S
Zr2726     O2727   2.434       .  S
Zr2726     O2728   2.436       .  S
Zr2726     O2732   2.419       .  S
Zr2726     O2731   2.329       .  S
Zr2726     O2736   2.335       .  S
Zr2726     O2734   2.424       .  S
O2727      H2743   0.990       .  S
O2728      H2742   0.990       .  S
O2728      H2752   0.990       .  S
Zr2729     O2732   2.411       .  S
Zr2729     O2734   2.406       .  S
Zr2730     O2731   2.390       .  S
Zr2730     O2733   2.362       .  S
Zr2730     O2736   2.375       .  S
O2731      H2739   0.965       .  S
O2734      H2738   0.966       .  S
O2735      H2740   0.965       .  S
C2753      C2754   1.401       .  A
C2753      C2758   1.408       .  A
C2754      C2755   1.393       .  A
C2754      H2759   1.085       .  S
C2755      C2756   1.405       .  A
C2755      C2762   1.445       .  S
C2756      C2757   1.397       .  A
C2757      C2758   1.392       .  A
C2761      N2763   1.157       .  T
C2762      N2764   1.157       .  T
C2765      C2766   1.408       .  A
C2765      C2770   1.409       .  A
C2766      C2767   1.396   1_545  A
C2766      H2771   1.079       .  S
C2767      C2768   1.404       .  A
C2767      C2774   1.445       .  S
C2768      C2769   1.408       .  A
C2769      C2770   1.397   1_565  A
C2769      H2772   1.085       .  S
C2770      C2773   1.442       .  S
C2773      N2775   1.157       .  T
C2774      N2776   1.157       .  T
C2777      C2778   1.394       .  A
C2777      C2782   1.417       .  A
C2778      C2779   1.388       .  A
C2778      H2783   1.085       .  S
C2779      C2780   1.414       .  A
C2779      C2786   1.444       .  S
C2780      C2781   1.402       .  A
C2781      C2782   1.400       .  A
C2781      H2784   1.085       .  S
C2782      C2785   1.446       .  S
C2785      N2787   1.158       .  T
C2786      N2788   1.157       .  T
C2789      C2790   1.412       .  A
C2789      C2794   1.410       .  A
C2790      C2791   1.392       .  A
C2790      H2795   1.085       .  S
C2791      C2792   1.413       .  A
C2791      C2798   1.447       .  S
C2792      C2793   1.407       .  A
C2793      C2794   1.388       .  A
C2793      H2796   1.085       .  S
C2794      C2797   1.443       .  S
C2797      N2799   1.156       .  T
C2798      N2800   1.158       .  T
C2801      C2802   1.398       .  A
C2801      C2806   1.406       .  A
C2802      C2803   1.387       .  A
C2802      H2807   1.086       .  S
C2803      C2804   1.403       .  A
C2803      C2810   1.445       .  S
C2804      C2805   1.401       .  A
C2805      C2806   1.394       .  A
C2805      H2808   1.085       .  S
C2806      C2809   1.445       .  S
C2809      N2811   1.157       .  T
C2810      N2812   1.157       .  T
C2813      C2814   1.409       .  A
C2813      C2818   1.408       .  A
C2814      C2815   1.393       .  A
C2814      H2819   1.085       .  S
C2815      C2816   1.406       .  A
C2815      C2822   1.445       .  S
C2816      C2817   1.407       .  A
C2817      C2818   1.394       .  A
C2817      H2820   1.085       .  S
C2818      C2821   1.444       .  S
C2821      N2823   1.157       .  T
C2822      N2824   1.157       .  T
C2825      C2826   1.388       .  A
C2825      C2830   1.418       .  A
C2826      C2827   1.386       .  A
C2826      H2831   1.087       .  S
C2827      C2828   1.412       .  A
C2827      C2834   1.431       .  S
C2828      C2829   1.400       .  A
C2829      C2830   1.404       .  A
C2829      H2832   1.084       .  S
C2830      C2833   1.444       .  S
C2833      N2835   1.157       .  T
C2834      N2836   1.152       .  T
C2837      C2838   1.408       .  A
C2837      C2842   1.411       .  A
C2838      C2839   1.388       .  A
C2838      H2843   1.085       .  S
C2839      C2840   1.405       .  A
C2839      C2846   1.445       .  S
C2840      C2841   1.400       .  A
C2841      C2842   1.397       .  A
C2841      H2844   1.083       .  S
C2842      C2845   1.440       .  S
C2845      N2847   1.157       .  T
C2846      N2848   1.157       .  T
C2849      C2850   1.391       .  A
C2849      C2854   1.413   1_565  A
C2850      C2851   1.394   1_565  A
C2850      H2855   1.086       .  S
C2851      C2852   1.420       .  A
C2851      C2858   1.437   1_545  S
C2852      C2853   1.396       .  A
C2853      C2854   1.382       .  A
C2853      H2856   1.086       .  S
C2854      C2857   1.446       .  S
C2857      N2859   1.157       .  T
C2858      N2860   1.156       .  T
C2861      C2862   1.422       .  A
C2861      C2866   1.415       .  A
C2862      C2863   1.408       .  A
C2862      H2867   1.086       .  S
C2863      C2864   1.408       .  A
C2863      C2870   1.446       .  S
C2864      C2865   1.422       .  A
C2865      C2866   1.433       .  A
C2865      H2868   1.084       .  S
C2866      C2869   1.440       .  S
C2869      N2871   1.157       .  T
C2870      N2872   1.158       .  T
C2873      C2874   1.405       .  A
C2873      C2878   1.406       .  A
C2874      C2875   1.397       .  A
C2874      H2879   1.082       .  S
C2875      C2876   1.406       .  A
C2875      C2882   1.445       .  S
C2876      C2877   1.409       .  A
C2877      C2878   1.405       .  A
C2877      H2880   1.082       .  S
C2878      C2881   1.443       .  S
C2881      N2883   1.157       .  T
C2882      N2884   1.157       .  T
C2885      C2886   1.421       .  A
C2885      C2890   1.421       .  A
C2886      C2887   1.442       .  A
C2886      H2891   1.084       .  S
C2887      C2888   1.426       .  A
C2887      C2894   1.440       .  S
C2888      C2889   1.422       .  A
C2889      C2890   1.425       .  A
C2889      H2892   1.085       .  S
C2890      C2893   1.445       .  S
C2893      N2895   1.158       .  T
C2894      N2896   1.157       .  T
C2897      C2898   1.399       .  A
C2897      C2902   1.405       .  A
C2898      C2899   1.389       .  A
C2898      H2903   1.086       .  S
C2899      C2900   1.410       .  A
C2899      C2906   1.446       .  S
C2900      C2901   1.403       .  A
C2901      C2902   1.392       .  A
C2901      H2904   1.085       .  S
C2902      C2905   1.444       .  S
C2905      N2907   1.157       .  T
C2906      N2908   1.157       .  T
C2909      C2910   1.400       .  A
C2909      C2914   1.407       .  A
C2910      C2911   1.394       .  A
C2910      H2915   1.079       .  S
C2911      C2912   1.406       .  A
C2911      C2918   1.445       .  S
C2912      C2913   1.406       .  A
C2913      C2914   1.394       .  A
C2913      H2916   1.086       .  S
C2914      C2917   1.444       .  S
C2917      N2919   1.157       .  T
C2918      N2920   1.157       .  T
C2921      C2922   1.391       .  A
C2921      C2926   1.433       .  A
C2922      C2923   1.404       .  A
C2922      H2927   1.086       .  S
C2923      C2924   1.444       .  A
C2923      C2930   1.441       .  S
C2924      C2925   1.415       .  A
C2925      C2926   1.437       .  A
C2925      H2928   1.084       .  S
C2926      C2929   1.442       .  S
C2929      N2931   1.157       .  T
C2930      N2932   1.158       .  T
C2933      C2934   1.401       .  A
C2933      C2938   1.414       .  A
C2934      C2935   1.401       .  A
C2934      H2939   1.085       .  S
C2935      C2936   1.416       .  A
C2935      C2942   1.445       .  S
C2937      H2940   1.084       .  S
C2941      N2943   1.157       .  T
C2942      N2944   1.157       .  T
C2945      C2946   1.406       .  A
C2945      C2950   1.414       .  A
C2946      C2947   1.388       .  A
C2946      H2951   1.085       .  S
C2947      C2948   1.404       .  A
C2947      C2954   1.444       .  S
C2948      C2949   1.403       .  A
C2949      C2950   1.388       .  A
C2949      H2952   1.086       .  S
C2950      C2953   1.447       .  S
C2953      N2955   1.158       .  T
C2957      C2958   1.405       .  A
C2957      C2962   1.423       .  A
C2958      C2959   1.406       .  A
C2958      H2963   1.085       .  S
C2959      C2960   1.426       .  A
C2959      C2966   1.444       .  S
C2960      C2961   1.408       .  A
C2961      C2962   1.411       .  A
C2961      H2964   1.084       .  S
C2962      C2965   1.444       .  S
C2965      N2967   1.157       .  T
C2966      N2968   1.157       .  T
C2969      C2970   1.387       .  A
C2969      C2974   1.423       .  A
C2970      C2971   1.402       .  A
C2970      H2975   1.087       .  S
C2971      C2972   1.446       .  A
C2971      C2978   1.441       .  S
C2972      C2973   1.411       .  A
C2973      C2974   1.430       .  A
C2973      H2976   1.082   1_545  S
C2974      C2977   1.437       .  S
C2977      N2979   1.157   1_545  T
C2978      N2980   1.155       .  T
C2981      C2982   1.416       .  A
C2981      C2986   1.393       .  A
C2982      C2983   1.399       .  A
C2982      H2987   1.085       .  S
C2983      C2984   1.400       .  A
C2983      C2990   1.444   1_655  S
C2984      C2985   1.403       .  A
C2985      C2986   1.393       .  A
C2985      H2988   1.066       .  S
C2986      C2989   1.447       .  S
C2989      N2991   1.158       .  T
C2993      C2998   1.413       .  A
C2994      C2995   1.391       .  A
C2994      H2999   1.085       .  S
C2995      C2996   1.415       .  A
C2995      C3002   1.441       .  S
C2996      C2997   1.410       .  A
C2997      H3000   1.084       .  S
C2998      C3001   1.445       .  S
C3001      N3003   1.158       .  T
C3002      N3004   1.156       .  T
C3005      C3006   1.388       .  A
C3005      C3010   1.403       .  A
C3006      C3007   1.378       .  A
C3006      H3011   1.076       .  S
C3007      C3008   1.402       .  A
C3007      C3014   1.447       .  S
C3008      C3009   1.402       .  A
C3009      C3010   1.395       .  A
C3009      H3012   1.084       .  S
C3010      C3013   1.445       .  S
C3013      N3015   1.157   1_565  T
C3014      N3016   1.157       .  T
C3017      C3018   1.407       .  A
C3017      C3022   1.408       .  A
C3018      C3019   1.405       .  A
C3018      H3023   1.085       .  S
C3019      C3020   1.414       .  A
C3019      C3026   1.446       .  S
C3020      C3021   1.403       .  A
C3021      C3022   1.397       .  A
C3021      H3024   1.085       .  S
C3022      C3025   1.438       .  S
C3025      N3027   1.155       .  T
C3026      N3028   1.158       .  T
C3029      C3030   1.399       .  A
C3029      C3034   1.419       .  A
C3030      C3031   1.388       .  A
C3030      H3035   1.085       .  S
C3031      C3032   1.419       .  A
C3031      C3038   1.445       .  S
C3032      C3033   1.397       .  A
C3033      C3034   1.379       .  A
C3033      H3036   1.084       .  S
C3034      C3037   1.447       .  S
C3037      N3039   1.157       .  T
C3038      N3040   1.157       .  T
C3041      C3042   1.401       .  A
C3041      C3046   1.419       .  A
C3042      C3043   1.395       .  A
C3042      H3047   1.085       .  S
C3043      C3044   1.411       .  A
C3043      C3050   1.432       .  S
C3044      C3045   1.411       .  A
C3045      C3046   1.412       .  A
C3045      H3048   1.085       .  S
C3046      C3049   1.444       .  S
C3050      N3052   1.153       .  T
C3053      C3054   1.414       .  A
C3053      C3058   1.412       .  A
C3054      C3055   1.420       .  A
C3054      H3059   1.085       .  S
C3055      C3056   1.414       .  A
C3055      C3062   1.441       .  S
C3056      C3057   1.414       .  A
C3057      C3058   1.411       .  A
C3057      H3060   1.084       .  S
C3058      C3061   1.444       .  S
C3061      N3063   1.157       .  T
C3062      N3064   1.157       .  T
C3065      C3066   1.405       .  A
C3065      C3070   1.427       .  A
C3066      C3067   1.399       .  A
C3066      H3071   1.085       .  S
C3067      C3068   1.420       .  A
C3067      C3074   1.445       .  S
C3068      C3069   1.392       .  A
C3069      C3070   1.411       .  A
C3069      H3072   1.085       .  S
C3070      C3073   1.422       .  S
C3073      N3075   1.151       .  T
C3077      C3078   1.396   1_565  A
C3077      C3082   1.418       .  A
C3078      C3079   1.397       .  A
C3078      H3083   1.086       .  S
C3079      C3080   1.434   1_545  A
C3079      C3086   1.449       .  S
C3080      C3081   1.408       .  A
C3081      C3082   1.421       .  A
C3081      H3084   1.084       .  S
C3082      C3085   1.437       .  S
C3085      N3087   1.156       .  T
C3086      N3088   1.158       .  T
C3089      C3090   1.411       .  A
C3089      C3094   1.422       .  A
C3090      C3091   1.397       .  A
C3090      H3095   1.084   1_556  S
C3091      C3092   1.409       .  A
C3091      C3098   1.446   1_556  S
C3092      C3093   1.401       .  A
C3093      C3094   1.408       .  A
C3094      C3097   1.443       .  S
C3098      N3100   1.157       .  T
C3101      C3102   1.397       .  A
C3102      C3103   1.383       .  A
C3102      H3107   1.087       .  S
C3103      C3104   1.403       .  A
C3103      C3110   1.440   1_554  S
C3105      C3106   1.400       .  A
C3105      H3108   1.085       .  S
C3106      C3109   1.444       .  S
C3109      N3111   1.157       .  T
C3110      N3112   1.156       .  T
C3113      C3114   1.408       .  A
C3113      C3118   1.419       .  A
C3114      C3115   1.413       .  A
C3114      H3119   1.077       .  S
C3115      C3116   1.415       .  A
C3115      C3122   1.443       .  S
C3116      C3117   1.406       .  A
C3117      C3118   1.413       .  A
C3117      H3120   1.085       .  S
C3118      C3121   1.442       .  S
C3121      N3123   1.157       .  T
C3122      N3124   1.157       .  T
C3125      C3126   1.398       .  A
C3125      C3130   1.416       .  A
C3126      C3127   1.412       .  A
C3126      H3131   1.086       .  S
C3127      C3128   1.423       .  A
C3127      C3134   1.430       .  S
C3128      C3129   1.411       .  A
C3129      C3130   1.400       .  A
C3129      H3132   1.085       .  S
C3130      C3133   1.447       .  S
C3133      N3135   1.157       .  T
C3134      N3136   1.154       .  T
C3137      C3138   1.398       .  A
C3137      C3142   1.414       .  A
C3138      C3139   1.394       .  A
C3138      H3143   1.080       .  S
C3139      C3140   1.408       .  A
C3139      C3146   1.444       .  S
C3140      C3141   1.401       .  A
C3141      C3142   1.400       .  A
C3141      H3144   1.085       .  S
C3142      C3145   1.445       .  S
C3145      N3147   1.158       .  T
C3146      N3148   1.157       .  T
C3149      C3150   1.420       .  A
C3149      C3154   1.401   1_556  A
C3150      C3151   1.412       .  A
C3150      H3155   1.084       .  S
C3151      C3152   1.409       .  A
C3151      C3158   1.441       .  S
C3152      C3153   1.428       .  A
C3153      C3154   1.407   1_556  A
C3153      H3156   1.084   1_556  S
C3154      C3157   1.443       .  S
C3157      N3159   1.157       .  T
C3158      N3160   1.157       .  T
C3161      C3162   1.417       .  A
C3161      C3166   1.411       .  A
C3162      C3163   1.419       .  A
C3162      H3167   1.084       .  S
C3163      C3164   1.410       .  A
C3163      C3170   1.440       .  S
C3164      C3165   1.414       .  A
C3165      C3166   1.396       .  A
C3165      H3168   1.085       .  S
C3166      C3169   1.446       .  S
C3169      N3171   1.157       .  T
C3170      N3172   1.157       .  T
C3173      C3174   1.412       .  A
C3173      C3178   1.422       .  A
C3174      C3175   1.403       .  A
C3174      H3179   1.085       .  S
C3175      C3176   1.417       .  A
C3175      C3182   1.447       .  S
C3176      C3177   1.401       .  A
C3177      C3178   1.414       .  A
C3177      H3180   1.085       .  S
C3178      C3181   1.434       .  S
C3181      N3183   1.155       .  T
C3182      N3184   1.158       .  T
C3185      C3186   1.398       .  A
C3185      C3190   1.416       .  A
C3186      C3187   1.402       .  A
C3186      H3191   1.085       .  S
C3187      C3188   1.419       .  A
C3187      C3194   1.443       .  S
C3188      C3189   1.394       .  A
C3189      C3190   1.399       .  A
C3189      H3192   1.077       .  S
C3190      C3193   1.446       .  S
C3193      N3195   1.157       .  T
C3194      N3196   1.157       .  T
C3197      C3198   1.415       .  A
C3197      C3202   1.405   1_556  A
C3198      C3199   1.396       .  A
C3198      H3203   1.085       .  S
C3199      C3200   1.404       .  A
C3199      C3206   1.442       .  S
C3200      C3201   1.417       .  A
C3201      C3202   1.401   1_556  A
C3201      H3204   1.085       .  S
C3202      C3205   1.442       .  S
C3205      N3207   1.157       .  T
C3206      N3208   1.157       .  T
C3209      C3210   1.399   1_566  A
C3209      C3214   1.415   1_565  A
C3210      C3211   1.401       .  A
C3210      H3215   1.085       .  S
C3211      C3212   1.414   1_554  A
C3211      C3218   1.445       .  S
C3212      C3213   1.396       .  A
C3213      C3214   1.398       .  A
C3213      H3216   1.085       .  S
C3214      C3217   1.444   1_545  S
C3217      N3219   1.157       .  T
C3218      N3220   1.157       .  T
C3221      C3222   1.400       .  A
C3221      C3226   1.420   1_554  A
C3222      C3223   1.393       .  A
C3222      H3227   1.084       .  S
C3223      C3224   1.407       .  A
C3223      C3230   1.433       .  S
C3224      C3225   1.396   1_554  A
C3225      C3226   1.389       .  A
C3225      H3228   1.087       .  S
C3226      C3229   1.443       .  S
C3229      N3231   1.157       .  T
C3230      N3232   1.153       .  T
C3233      C3234   1.411       .  A
C3233      C3238   1.416       .  A
C3234      C3235   1.431       .  A
C3234      H3239   1.084       .  S
C3235      C3236   1.429       .  A
C3235      C3242   1.436       .  S
C3236      C3237   1.416       .  A
C3237      C3238   1.411       .  A
C3237      H3240   1.085       .  S
C3238      C3241   1.446       .  S
C3241      N3243   1.157       .  T
C3242      N3244   1.156       .  T
C3245      C3246   1.408       .  A
C3245      C3250   1.418       .  A
C3246      C3247   1.409       .  A
C3246      H3251   1.085       .  S
C3247      C3248   1.418       .  A
C3248      C3249   1.408       .  A
C3249      C3250   1.406       .  A
C3249      H3252   1.085       .  S
C3250      C3253   1.443       .  S
C3253      N3255   1.157       .  T
C3254      N3256   1.156   1_455  T
C3257      C3258   1.413       .  A
C3257      C3262   1.428       .  A
C3258      C3259   1.418       .  A
C3258      H3263   1.075       .  S
C3259      C3260   1.415       .  A
C3259      C3266   1.444       .  S
C3260      C3261   1.397       .  A
C3261      C3262   1.402       .  A
C3261      H3264   1.087       .  S
C3262      C3265   1.442       .  S
C3265      N3267   1.157       .  T
C3266      N3268   1.157       .  T
C3269      C3270   1.403       .  A
C3269      C3274   1.414       .  A
C3270      C3271   1.398       .  A
C3270      H3275   1.078       .  S
C3271      C3272   1.419       .  A
C3271      C3278   1.443       .  S
C3272      C3273   1.421       .  A
C3273      C3274   1.425       .  A
C3273      H3276   1.084       .  S
C3274      C3277   1.443       .  S
C3278      N3280   1.157       .  T
C3281      C3282   1.390       .  A
C3281      C3286   1.439       .  A
C3282      C3283   1.410       .  A
C3282      H3287   1.086       .  S
C3283      C3284   1.440       .  A
C3283      C3290   1.439       .  S
C3284      C3285   1.392       .  A
C3285      C3286   1.407       .  A
C3285      H3288   1.085       .  S
C3286      C3289   1.441       .  S
C3289      N3291   1.157       .  T
C3290      N3292   1.156       .  T
C3293      C3294   1.415       .  A
C3293      C3298   1.424       .  A
C3294      C3295   1.420       .  A
C3294      H3299   1.085       .  S
C3295      C3296   1.417       .  A
C3295      C3302   1.444       .  S
C3296      C3297   1.394       .  A
C3297      C3298   1.398       .  A
C3297      H3300   1.086       .  S
C3298      C3301   1.434       .  S
C3301      N3303   1.155       .  T
C3302      N3304   1.158       .  T
C3305      C3306   1.404       .  A
C3305      C3310   1.422       .  A
C3306      C3307   1.414       .  A
C3306      H3311   1.084       .  S
C3307      C3308   1.418       .  A
C3307      C3314   1.443       .  S
C3308      C3309   1.403       .  A
C3309      C3310   1.411       .  A
C3309      H3312   1.085       .  S
C3310      C3313   1.446       .  S
C3313      N3315   1.158       .  T
C3314      N3316   1.157       .  T
C3317      C3318   1.400       .  A
C3317      C3322   1.409       .  A
C3318      C3319   1.395       .  A
C3318      H3323   1.086       .  S
C3319      C3320   1.417       .  A
C3319      C3326   1.444       .  S
C3320      C3321   1.404       .  A
C3321      C3322   1.387       .  A
C3321      H3324   1.085       .  S
C3322      C3325   1.444       .  S
C3325      N3327   1.157       .  T
C3326      N3328   1.157       .  T
C3329      C3330   1.414       .  A
C3329      C3334   1.408       .  A
C3330      C3331   1.397       .  A
C3330      H3335   1.076       .  S
C3331      C3332   1.393       .  A
C3331      C3338   1.447       .  S
C3332      C3333   1.415       .  A
C3333      C3334   1.414       .  A
C3333      H3336   1.085       .  S
C3334      C3337   1.436       .  S
C3337      N3339   1.156       .  T
C3338      N3340   1.157   1_545  T
C3341      C3342   1.406       .  A
C3341      C3346   1.429       .  A
C3342      C3343   1.422       .  A
C3342      H3347   1.084       .  S
C3343      C3344   1.428       .  A
C3343      C3350   1.441       .  S
C3344      C3345   1.393       .  A
C3345      C3346   1.392       .  A
C3345      H3348   1.086       .  S
C3346      C3349   1.445       .  S
C3349      N3351   1.157       .  T
C3350      N3352   1.157       .  T
C3353      C3354   1.397       .  A
C3353      C3358   1.421       .  A
C3354      C3355   1.388       .  A
C3354      H3359   1.086       .  S
C3355      C3356   1.419       .  A
C3355      C3362   1.442       .  S
C3356      C3357   1.403       .  A
C3357      C3358   1.409       .  A
C3357      H3360   1.085       .  S
C3358      C3361   1.443       .  S
C3361      N3363   1.157       .  T
C3362      N3364   1.157       .  T
C3365      C3366   1.418   1_545  A
C3365      C3370   1.418       .  A
C3366      C3367   1.424       .  A
C3367      C3368   1.414       .  A
C3367      C3374   1.440       .  S
C3368      C3369   1.412       .  A
C3369      C3370   1.404   1_565  A
C3369      H3372   1.086       .  S
C3370      C3373   1.447       .  S
C3373      N3375   1.158       .  T
C3377      C3382   1.410       .  A
C3378      C3379   1.389       .  A
C3378      H3383   1.086       .  S
C3379      C3380   1.396       .  A
C3379      C3386   1.441       .  S
C3381      C3382   1.399   1_455  A
C3381      H3384   1.085       .  S
C3382      C3385   1.445       .  S
C3385      N3387   1.157       .  T
C3386      N3388   1.156       .  T
C3389      C3390   1.395       .  A
C3389      C3394   1.429       .  A
C3390      C3391   1.396   1_545  A
C3390      H3395   1.085       .  S
C3391      C3392   1.433       .  A
C3391      C3398   1.446       .  S
C3392      C3393   1.397   1_565  A
C3393      C3394   1.405       .  A
C3393      H3396   1.085       .  S
C3394      C3397   1.441       .  S
C3397      N3399   1.156       .  T
C3398      N3400   1.157       .  T
C3401      C3402   1.418       .  A
C3401      C3406   1.410       .  A
C3402      C3403   1.396       .  A
C3402      H3407   1.086       .  S
C3403      C3404   1.403       .  A
C3403      C3410   1.446       .  S
C3404      C3405   1.419       .  A
C3405      C3406   1.425       .  A
C3405      H3408   1.084       .  S
C3406      C3409   1.441       .  S
C3409      N3411   1.157       .  T
C3410      N3412   1.157   1_565  T
C3413      C3414   1.408       .  A
C3413      C3418   1.433       .  A
C3414      C3415   1.417       .  A
C3414      H3419   1.084       .  S
C3415      C3416   1.420       .  A
C3415      C3422   1.443       .  S
C3416      C3417   1.392       .  A
C3417      C3418   1.398       .  A
C3417      H3420   1.087       .  S
C3418      C3421   1.445       .  S
C3421      N3423   1.157   1_655  T
C3422      N3424   1.157       .  T
C3425      C3426   1.405       .  A
C3425      C3430   1.414       .  A
C3426      C3427   1.397       .  A
C3426      H3431   1.085       .  S
C3427      C3428   1.410       .  A
C3427      C3434   1.445       .  S
C3428      C3429   1.399       .  A
C3429      C3430   1.398       .  A
C3429      H3432   1.085       .  S
C3430      C3433   1.442       .  S
C3433      N3435   1.156       .  T
C3434      N3436   1.157       .  T
C3437      C3438   1.395       .  A
C3437      C3442   1.438       .  A
C3438      C3439   1.401       .  A
C3438      H3443   1.085       .  S
C3439      C3440   1.421       .  A
C3439      C3446   1.447       .  S
C3440      C3441   1.380       .  A
C3441      C3442   1.390       .  A
C3441      H3444   1.086       .  S
C3442      C3445   1.443       .  S
C3446      N3448   1.158       .  T
C3449      C3454   1.417       .  A
C3450      C3451   1.421       .  A
C3451      C3452   1.415       .  A
C3451      C3458   1.441       .  S
C3452      C3453   1.410       .  A
C3453      H3456   1.085       .  S
C3454      C3457   1.438       .  S
C3457      N3459   1.156       .  T
C3458      N3460   1.157       .  T
C3461      C3462   1.411       .  A
C3461      C3466   1.403       .  A
C3462      C3463   1.402       .  A
C3462      H3467   1.084       .  S
C3463      C3464   1.411       .  A
C3463      C3470   1.444       .  S
C3464      C3465   1.419       .  A
C3465      C3466   1.404       .  A
C3465      H3468   1.084       .  S
C3466      C3469   1.444       .  S
C3469      N3471   1.157       .  T
C3470      N3472   1.158       .  T
C3473      C3474   1.400       .  A
C3473      C3478   1.410       .  A
C3474      C3475   1.396       .  A
C3474      H3479   1.085       .  S
C3475      C3476   1.409       .  A
C3475      C3482   1.445       .  S
C3476      C3477   1.399       .  A
C3477      C3478   1.394       .  A
C3477      H3480   1.085       .  S
C3478      C3481   1.446       .  S
C3481      N3483   1.157       .  T
C3482      N3484   1.157       .  T
C3485      C3486   1.414       .  A
C3485      C3490   1.411       .  A
C3486      C3487   1.402       .  A
C3486      H3491   1.085       .  S
C3487      C3488   1.405       .  A
C3487      C3494   1.444       .  S
C3488      C3489   1.411       .  A
C3489      C3490   1.409       .  A
C3489      H3492   1.080       .  S
C3490      C3493   1.442       .  S
C3493      N3495   1.157       .  T
C3494      N3496   1.157       .  T
C3497      C3498   1.399       .  A
C3497      C3502   1.410       .  A
C3498      C3499   1.400       .  A
C3498      H3503   1.084       .  S
C3499      C3500   1.420       .  A
C3499      C3506   1.443       .  S
C3500      C3501   1.409       .  A
C3501      C3502   1.404       .  A
C3501      H3504   1.084       .  S
C3502      C3505   1.444       .  S
C3505      N3507   1.157       .  T
C3506      N3508   1.157       .  T
C3509      C3510   1.379       .  A
C3509      C3514   1.428       .  A
C3510      C3511   1.389       .  A
C3510      H3515   1.088       .  S
C3511      C3512   1.447       .  A
C3511      C3518   1.447       .  S
C3512      C3513   1.400       .  A
C3513      C3514   1.421       .  A
C3513      H3516   1.084       .  S
C3514      C3517   1.433       .  S
C3517      N3519   1.154       .  T
C3518      N3520   1.157       .  T
