geometry optimzed in LAMMPS
_audit_creation_date              2020-11-30 
_audit_creation_method            'lammps2cif' 
_symmetry_space_group_name_H-M    'P1' 
_symmetry_Int_Tables_number       1 
_symmetry_cell_setting            triclinic 
loop_ 
_symmetry_equiv_pos_as_xyz 
  x,y,z 
_cell_length_a                    45.984416 
_cell_length_b                    45.955932301059974 
_cell_length_c                    42.56375695900072 
_cell_angle_alpha                 90.00326243859222 
_cell_angle_beta                  89.99817288902535 
_cell_angle_gamma                 123.88009232029657 
loop_ 
_atom_site_label 
_atom_site_type_symbol 
_atom_site_fract_x 
_atom_site_fract_y 
_atom_site_fract_z 
_atom_site_charge 
In1        In  0.15596006  0.67262413  0.15296858     1.36900
C2          C  0.22010605  0.73020495  0.15561671     0.80400
O3          O  0.15231089  0.68302021  0.10189471    -0.58000
O4          O  0.12422226  0.69290286  0.13485803    -0.48900
C5          C  0.14242506  0.60973502  0.13937427     0.73100
O6          O  0.17254338  0.63748171  0.13767435    -0.43800
C7          C  0.13947845  0.66387274  0.21386829     0.77800
O8          O  0.21410215  0.70139428  0.14610195    -0.55600
O9          O  0.11880930  0.66217063  0.19326497    -0.45700
O10         O  0.19353741  0.72958262  0.16409322    -0.52100
C11         C  0.13407821  0.69516246  0.10683009     0.88000
O12         O  0.11833731  0.61393392  0.14645529    -0.54000
O13         O  0.16760416  0.66921158  0.20330391    -0.57300
In14       In  0.15612050  0.67292325  0.36981484     1.36900
C15         C  0.22040100  0.73031201  0.36732637     0.80400
O16         O  0.16773942  0.66947115  0.31946181    -0.58000
O17         O  0.11894305  0.66241010  0.32951053    -0.48900
C18         C  0.14258768  0.61000856  0.38330245     0.73100
O19         O  0.17274972  0.63772840  0.38469254    -0.43800
C20         C  0.13430196  0.69552783  0.41598012     0.77800
O21         O  0.21417721  0.70150760  0.37711096    -0.55600
O22         O  0.12483644  0.69375903  0.38788156    -0.45700
O23         O  0.19397438  0.72980418  0.35856960    -0.52100
C24         C  0.13959178  0.66407815  0.30890251     0.88000
O25         O  0.11843042  0.61424100  0.37659967    -0.54000
O26         O  0.15212380  0.68293205  0.42092257    -0.57300
In27       In  0.15369629  0.47256304  0.36857900     1.36900
C28         C  0.21602372  0.48195039  0.36648125     0.80400
O29         O  0.14826482  0.45795645  0.41972906    -0.58000
O30         O  0.12160461  0.41687292  0.38637170    -0.48900
C31         C  0.14277429  0.52230660  0.38183249     0.73100
O32         O  0.17293654  0.52824924  0.37948526    -0.43800
C33         C  0.13453088  0.46230825  0.30842688     0.77800
O34         O  0.21164813  0.50422670  0.37871749    -0.55600
O35         O  0.11384133  0.44259392  0.32983418    -0.45700
O36         O  0.18900252  0.45559349  0.35475120    -0.52100
C37         C  0.13026406  0.42548386  0.41462682     0.88000
O38         O  0.11787323  0.49064865  0.37847361    -0.54000
O39         O  0.16415473  0.48708148  0.31783619    -0.57300
In40       In  0.15354357  0.47239816  0.15385502     1.36900
C41         C  0.21587925  0.48187544  0.15585599     0.80400
O42         O  0.16357484  0.48756557  0.20447287    -0.58000
O43         O  0.11410408  0.44172304  0.19272088    -0.48900
C44         C  0.14249162  0.52201347  0.14068263     0.73100
O45         O  0.17266010  0.52813109  0.14371156    -0.43800
C46         C  0.13015425  0.42551879  0.10767257     0.77800
O47         O  0.21131231  0.50378469  0.14310819    -0.55600
O48         O  0.12128778  0.41682052  0.13588294    -0.45700
O49         O  0.18904467  0.45582702  0.16813194    -0.52100
C50         C  0.13438989  0.46213733  0.21400964     0.88000
O51         O  0.11762819  0.49022834  0.14333843    -0.54000
O52         O  0.14841917  0.45801278  0.10267354    -0.57300
In53       In  0.56855786  0.68800117  0.37042389     1.36900
C54         C  0.56345627  0.74264900  0.36930098     0.80400
O55         O  0.58402006  0.69813506  0.42154246    -0.58000
O56         O  0.62359852  0.71148071  0.38781926    -0.48900
C57         C  0.51660135  0.62243639  0.38301545     0.75500
O58         O  0.51290622  0.64758043  0.38324484    -0.43800
C59         C  0.57650373  0.68117095  0.30944369     0.77800
O60         O  0.53898510  0.71307990  0.37932202    -0.55600
O61         O  0.59569685  0.68017994  0.33001356    -0.45700
O62         O  0.59028739  0.74425941  0.35992515    -0.52100
C63         C  0.61606271  0.71188710  0.41619557     0.88000
O64         O  0.54726319  0.63071880  0.37757326    -0.54000
O65         O  0.55331590  0.68502296  0.32001997    -0.57300
In66       In  0.35882581  0.47700776  0.36942851     1.36900
C67         C  0.30484437  0.48292980  0.36768015     0.80400
O68         O  0.36168283  0.49182567  0.31897568    -0.58000
O69         O  0.36705632  0.44981715  0.32932175    -0.48900
C70         C  0.42413795  0.52938146  0.38247617     0.73100
O71         O  0.39911855  0.53312890  0.38077481    -0.43800
C72         C  0.33362953  0.42910051  0.41498672     0.77800
O73         O  0.33382647  0.50627868  0.37956938    -0.55600
O74         O  0.33650485  0.42206921  0.38700921    -0.45700
O75         O  0.30345271  0.45672494  0.35668153    -0.52100
C76         C  0.36585738  0.46877357  0.30861382     0.88000
O77         O  0.41589065  0.49846985  0.37866923    -0.54000
O78         O  0.34540352  0.46078989  0.42006182    -0.57300
In79       In  0.56890798  0.68814738  0.15349331     1.36900
C80         C  0.56358268  0.74267365  0.15434982     0.80400
O81         O  0.55363722  0.68510780  0.20389527    -0.58000
O82         O  0.59614610  0.68048185  0.19401668    -0.48900
C83         C  0.51684196  0.62277374  0.14034810     0.73100
O84         O  0.51339248  0.64807037  0.14011511    -0.43800
C85         C  0.61624077  0.71179097  0.10760105     0.77800
O86         O  0.53859227  0.71263289  0.14585014    -0.55600
O87         O  0.62394467  0.71180148  0.13600424    -0.45700
O88         O  0.59107925  0.74484316  0.16238614    -0.52100
C89         C  0.57684292  0.68134683  0.21454198     0.88000
O90         O  0.54737426  0.63079766  0.14607421    -0.54000
O91         O  0.58413963  0.69778590  0.10232076    -0.57300
In92       In  0.35871857  0.47718239  0.15312143     1.36900
C93         C  0.30473012  0.48302691  0.15461355     0.80400
O94         O  0.34650121  0.46123540  0.10231277    -0.58000
O95         O  0.33556881  0.42205198  0.13564428    -0.48900
C96         C  0.42405477  0.52986815  0.14047910     0.73100
O97         O  0.39887140  0.53341231  0.14173917    -0.43800
C98         C  0.36558459  0.46874537  0.21391606     0.77800
O99         O  0.33375088  0.50643105  0.14281622    -0.55600
O100        O  0.36802634  0.45066576  0.19308819    -0.45700
O101        O  0.30330714  0.45681319  0.16561979    -0.52100
C102        C  0.33376171  0.42935622  0.10748715     0.88000
O103        O  0.41596649  0.49905400  0.14461303    -0.54000
O104        O  0.36016651  0.49099113  0.20369288    -0.57300
In105      In  0.37208496  0.88799576  0.36975365     1.36900
C106        C  0.31475432  0.82361289  0.36685031     0.80400
O107        O  0.36009650  0.88972388  0.42087181    -0.58000
O108        O  0.35254753  0.92010815  0.38863468    -0.48900
C109        C  0.43561314  0.90255354  0.38229828     0.73100
O110        O  0.40855749  0.87190046  0.38143912    -0.43800
C111        C  0.38059395  0.90605430  0.30928825     0.77800
O112        O  0.34307556  0.82985153  0.37799923    -0.55600
O113        O  0.38128115  0.92572690  0.33040587    -0.45700
O114        O  0.31587988  0.84995733  0.35675133    -0.52100
C115        C  0.34924838  0.90917785  0.41639178     0.88000
O116        O  0.43037719  0.92646601  0.37812947    -0.54000
O117        O  0.37629887  0.87810807  0.31912553    -0.57300
In118      In  0.57512525  0.89469252  0.36949890     1.36900
C119        C  0.56571742  0.83230481  0.36806143     0.80400
O120        O  0.56097680  0.88347353  0.31882206    -0.58000
O121        O  0.60492119  0.93428721  0.33050288    -0.48900
C122        C  0.52459030  0.90475571  0.38179204     0.73100
O123        O  0.51888589  0.87489884  0.37749012    -0.43800
C124        C  0.62227853  0.91802495  0.41542008     0.77800
O125        O  0.54453288  0.83730677  0.38171593    -0.55600
O126        O  0.63087108  0.92757199  0.38729576    -0.45700
O127        O  0.59115015  0.85880959  0.35476132    -0.52100
C128        C  0.58547864  0.91312403  0.30921399     0.88000
O129        O  0.55642569  0.92983865  0.38093690    -0.54000
O130        O  0.58982576  0.89949188  0.42047676    -0.57300
In131      In  0.37189526  0.88797004  0.15413289     1.36900
C132        C  0.31437410  0.82367372  0.15633376     0.80400
O133        O  0.37515293  0.87754124  0.20485835    -0.58000
O134        O  0.38185154  0.92593700  0.19352101    -0.48900
C135        C  0.43541519  0.90239906  0.14172045     0.73100
O136        O  0.40842111  0.87173604  0.14316112    -0.43800
C137        C  0.34924646  0.90934363  0.10751580     0.77800
O138        O  0.34281910  0.82988559  0.14552213    -0.55600
O139        O  0.35206053  0.91986645  0.13537599    -0.45700
O140        O  0.31545931  0.85000533  0.16642134    -0.52100
C141        C  0.38033628  0.90587590  0.21467391     0.88000
O142        O  0.43011695  0.92634323  0.14529457    -0.54000
O143        O  0.36053798  0.89027633  0.10295648    -0.57300
In144      In  0.57486679  0.89446690  0.15444453     1.36900
C145        C  0.56540044  0.83206351  0.15545349     0.80400
O146        O  0.58984477  0.89993054  0.10348814    -0.58000
O147        O  0.63074374  0.92664715  0.13704166    -0.48900
C148        C  0.52437247  0.90456131  0.14212487     0.73100
O149        O  0.51856150  0.87478674  0.14727709    -0.43800
C150        C  0.58527363  0.91308940  0.21468937     0.77800
O151        O  0.54433325  0.83718818  0.14173225    -0.55600
O152        O  0.60469898  0.93418571  0.19335663    -0.45700
O153        O  0.59067963  0.85842111  0.16903236    -0.52100
C154        C  0.62226464  0.91774770  0.10878067     0.88000
O155        O  0.55628769  0.92952018  0.14211674    -0.54000
O156        O  0.56071610  0.88344012  0.20513800    -0.57300
In157      In  0.90672384  0.55784377  0.36851480     1.36900
C158        C  0.84417853  0.54810719  0.36637681     0.80400
O159        O  0.91166889  0.57203059  0.41973037    -0.58000
O160        O  0.93855430  0.61335418  0.38660724    -0.48900
C161        C  0.91783559  0.50816910  0.38173523     0.73100
O162        O  0.88766665  0.50201517  0.37854017    -0.43800
C163        C  0.92660919  0.56930300  0.30850865     0.77800
O164        O  0.84854645  0.52559717  0.37808157    -0.55600
O165        O  0.94721033  0.58828151  0.33026336    -0.45700
O166        O  0.87132028  0.57487730  0.35529069    -0.52100
C167        C  0.92973736  0.60453943  0.41479998     0.88000
O168        O  0.94263972  0.53996885  0.37912106    -0.54000
O169        O  0.89673718  0.54462811  0.31749518    -0.57300
In170      In  0.90488080  0.35772053  0.36947778     1.36900
C171        C  0.84080826  0.29988603  0.36648226     0.80400
O172        O  0.89369276  0.36147877  0.31914955    -0.58000
O173        O  0.94256743  0.36881271  0.32951547    -0.48900
C174        C  0.91815057  0.42055282  0.38318717     0.73100
O175        O  0.88789760  0.39288305  0.38355956    -0.43800
C176        C  0.92658889  0.33491338  0.41552686     0.77800
O177        O  0.84670635  0.32837674  0.37684548    -0.55600
O178        O  0.93652674  0.33726956  0.38750966    -0.45700
O179        O  0.86743640  0.30097041  0.35735596    -0.52100
C180        C  0.92200947  0.36711621  0.30879829     0.88000
O181        O  0.94246569  0.41629834  0.37735340    -0.54000
O182        O  0.90825160  0.34694208  0.42045140    -0.57300
In183      In  0.90667567  0.55812797  0.15431198     1.36900
C184        C  0.84392237  0.54789899  0.15591063     0.80400
O185        O  0.89667828  0.54511564  0.20532348    -0.58000
O186        O  0.94733600  0.58841493  0.19251664    -0.48900
C187        C  0.91732950  0.50816123  0.14134228     0.73100
O188        O  0.88727930  0.50210325  0.14521924    -0.43800
C189        C  0.93007101  0.60502756  0.10818344     0.77800
O190        O  0.84877907  0.52600423  0.14354798    -0.55600
O191        O  0.93790929  0.61375554  0.13652756    -0.45700
O192        O  0.87069372  0.57433343  0.16784408    -0.52100
C193        C  0.92665148  0.56957880  0.21428759     0.88000
O194        O  0.94224841  0.53999645  0.14324150    -0.54000
O195        O  0.91277067  0.57256445  0.10309297    -0.57300
In196      In  0.90467641  0.35783697  0.15326823     1.36900
C197        C  0.84082636  0.29969719  0.15575365     0.80400
O198        O  0.90826939  0.34738599  0.10223469    -0.58000
O199        O  0.93672146  0.33790690  0.13514345    -0.48900
C200        C  0.91747941  0.42048426  0.13979432     0.73100
O201        O  0.88727336  0.39274738  0.13957138    -0.43800
C202        C  0.92179051  0.36704378  0.21397704     0.77800
O203        O  0.84649898  0.32825330  0.14584100    -0.55600
O204        O  0.94250504  0.36922782  0.19317781    -0.45700
O205        O  0.86755620  0.30088546  0.16472320    -0.52100
C206        C  0.92674882  0.33550828  0.10713334     0.88000
O207        O  0.94193590  0.41639112  0.14540768    -0.54000
O208        O  0.89325982  0.36094459  0.20371305    -0.57300
In209      In  0.70147975  0.55351042  0.15311276     1.36900
C210        C  0.75506112  0.54684376  0.15506200     0.80400
O211        O  0.71469435  0.56933225  0.10231930    -0.58000
O212        O  0.72410348  0.60840440  0.13512949    -0.48900
C213        C  0.63608725  0.50103692  0.14006417     0.73100
O214        O  0.66126047  0.49748352  0.14108812    -0.43800
C215        C  0.69475517  0.56263259  0.21387053     0.77800
O216        O  0.72567825  0.52325017  0.14403962    -0.55600
O217        O  0.69371298  0.58145804  0.19292307    -0.45700
O218        O  0.75704996  0.57365571  0.16521609    -0.52100
C219        C  0.72677972  0.60112247  0.10719638     0.88000
O220        O  0.64421016  0.53181491  0.14454750    -0.54000
O221        O  0.69860936  0.53927402  0.20377940    -0.57300
In222      In  0.49182597  0.34235079  0.15319614     1.36900
C223        C  0.49800217  0.28839061  0.15477848     0.80400
O224        O  0.50871702  0.34811871  0.20339483    -0.58000
O225        O  0.46235235  0.34624128  0.19395086    -0.48900
C226        C  0.54345551  0.40800541  0.14008929     0.73100
O227        O  0.54705233  0.38282969  0.13929809    -0.43800
C228        C  0.44439545  0.31841124  0.10728271     0.77800
O229        O  0.52227633  0.31813999  0.14502520    -0.55600
O230        O  0.43720624  0.32060025  0.13537209    -0.45700
O231        O  0.47074774  0.28618789  0.16372085    -0.52100
C232        C  0.48341924  0.34834297  0.21427443     0.88000
O233        O  0.51295658  0.39974943  0.14638954    -0.54000
O234        O  0.47613007  0.33040565  0.10221062    -0.57300
In235      In  0.70169112  0.55377317  0.36928685     1.36900
C236        C  0.75543033  0.54735109  0.36712404     0.80400
O237        O  0.69778585  0.53889542  0.31870966    -0.58000
O238        O  0.69464649  0.58219695  0.32942403    -0.48900
C239        C  0.63631855  0.50131196  0.38237543     0.73100
O240        O  0.66134628  0.49759719  0.38054461    -0.43800
C241        C  0.72708996  0.60130976  0.41528282     0.77800
O242        O  0.72624847  0.52390635  0.37859052    -0.55600
O243        O  0.72366513  0.60845604  0.38751478    -0.45700
O244        O  0.75715282  0.57391541  0.35664327    -0.52100
C245        C  0.69476564  0.56276744  0.30854667     0.88000
O246        O  0.64458856  0.53225487  0.37873667    -0.54000
O247        O  0.71569900  0.56965017  0.41999024    -0.57300
In248      In  0.49192953  0.34242036  0.37030820     1.36900
C249        C  0.49784594  0.28830703  0.36897894     0.80400
O250        O  0.47653636  0.33142822  0.42144491    -0.58000
O251        O  0.43717004  0.31993304  0.38815311    -0.48900
C252        C  0.54372059  0.40820905  0.38268602     0.73100
O253        O  0.54730336  0.38302341  0.38374500    -0.43800
C254        C  0.48347419  0.34829690  0.30925665     0.77800
O255        O  0.52191607  0.31786052  0.37931248    -0.55600
O256        O  0.46288709  0.34706312  0.32964765    -0.45700
O257        O  0.47096488  0.28640829  0.35932174    -0.52100
C258        C  0.44462439  0.31857992  0.41635180     0.88000
O259        O  0.51319114  0.39990341  0.37645709    -0.54000
O260        O  0.50832000  0.34722126  0.32005637    -0.57300
In261      In  0.68919418  0.14165693  0.36966117     1.36900
C262        C  0.74677595  0.20598416  0.36640174     0.80400
O263        O  0.70065398  0.13914030  0.42075401    -0.58000
O264        O  0.70912297  0.10970979  0.38814488    -0.48900
C265        C  0.62598281  0.12772686  0.38272777     0.73100
O266        O  0.65336143  0.15819241  0.38264009    -0.43800
C267        C  0.67994005  0.12362162  0.30915468     0.77800
O268        O  0.71825907  0.20000452  0.37674872    -0.55600
O269        O  0.67868941  0.10358145  0.33018956    -0.45700
O270        O  0.74578151  0.17936651  0.35736129    -0.52100
C271        C  0.71196372  0.12011597  0.41604802     0.88000
O272        O  0.63074593  0.10360608  0.37773199    -0.54000
O273        O  0.68517870  0.15193538  0.31908997    -0.57300
In274      In  0.68918630  0.14137451  0.15391251     1.36900
C275        C  0.74693447  0.20561357  0.15610376     0.80400
O276        O  0.68622128  0.15227537  0.20454958    -0.58000
O277        O  0.67785401  0.10309285  0.19344840    -0.48900
C278        C  0.62600617  0.12769255  0.14121757     0.73100
O279        O  0.65329519  0.15819934  0.14224608    -0.43800
C280        C  0.71174331  0.11958790  0.10758239     0.77800
O281        O  0.71842931  0.19950887  0.14557677    -0.55600
O282        O  0.70984576  0.10999567  0.13565923    -0.45700
O283        O  0.74584944  0.17916685  0.16585401    -0.52100
C284        C  0.68003947  0.12358868  0.21449578     0.88000
O285        O  0.63084955  0.10347405  0.14518150    -0.54000
O286        O  0.69953767  0.13780479  0.10273923    -0.57300
In287      In  0.48728141  0.13711047  0.15483613     1.36900
C288        C  0.49700339  0.19956986  0.15613114     0.80400
O289        O  0.47274333  0.13303179  0.10386140    -0.58000
O290        O  0.43162720  0.10449048  0.13689924    -0.48900
C291        C  0.53760050  0.12665079  0.14247023     0.73100
O292        O  0.54360304  0.15646086  0.14784523    -0.43800
C293        C  0.47563478  0.11804380  0.21495625     0.77800
O294        O  0.51862407  0.19469644  0.14320322    -0.55600
O295        O  0.45661627  0.09715210  0.19336075    -0.45700
O296        O  0.47109234  0.17295510  0.16880793    -0.52100
C297        C  0.44026790  0.11435094  0.10884790     0.88000
O298        O  0.50563033  0.10186009  0.14242641    -0.54000
O299        O  0.50045222  0.14772879  0.20574729    -0.57300
In300      In  0.48702725  0.13687051  0.36938308     1.36900
C301        C  0.49657358  0.19929479  0.36797170     0.80400
O302        O  0.50051279  0.14747082  0.31855964    -0.58000
O303        O  0.45623152  0.09707852  0.33081032    -0.48900
C304        C  0.53752784  0.12661071  0.38150924     0.73100
O305        O  0.54340859  0.15642044  0.37642724    -0.43800
C306        C  0.43987612  0.11362573  0.41529146     0.77800
O307        O  0.51760196  0.19423311  0.38185401    -0.55600
O308        O  0.43133093  0.10378506  0.38722494    -0.45700
O309        O  0.47130943  0.17287921  0.35445235    -0.52100
C310        C  0.47550861  0.11791048  0.30928021     0.88000
O311        O  0.50560350  0.10172365  0.38134223    -0.54000
O312        O  0.47232801  0.13253191  0.42031695    -0.57300
C313        C  0.71819869  0.90291060  0.01198168     0.89300
C314        C  0.69623922  0.90003087  0.48340453    -0.50900
C315        C  0.68754937  0.92400166  0.48357975     0.12300
C316        C  0.70134004  0.94844947  0.01209289     0.23200
C317        C  0.75019369  0.94136152  0.01190309    -0.51600
C318        C  0.74096871  0.96505442  0.01195167     0.12400
C319        C  0.69643983  0.90008274  0.04069188    -0.51100
C320        C  0.68772701  0.92402755  0.04063240     0.12900
H321        H  0.68808091  0.88064941  0.46491356     0.17500
H322        H  0.69399514  0.96777248  0.01214113     0.03200
H323        H  0.77720185  0.94900693  0.01177355     0.17800
H324        H  0.68835847  0.88069362  0.05916222     0.17600
C325        C  0.74492261  0.77788289  0.01175797     0.89300
C326        C  0.72094549  0.76030807  0.48317402    -0.50900
C327        C  0.69223459  0.76185973  0.48334906     0.12300
C328        C  0.69025842  0.78122465  0.01190019     0.23200
C329        C  0.75437360  0.81568288  0.01192549    -0.51600
C330        C  0.72557532  0.81742463  0.01198661     0.12400
C331        C  0.72091199  0.76004453  0.04028155    -0.51100
C332        C  0.69220483  0.76161028  0.04025674     0.12900
H333        H  0.72560141  0.74673313  0.46501467     0.17500
H334        H  0.66680554  0.78247308  0.01195667     0.03200
H335        H  0.78107529  0.83869997  0.01194838     0.17800
H336        H  0.72556004  0.74632740  0.05829564     0.17600
C337        C  0.91839661  0.70244383  0.01144144     0.89300
C338        C  0.91540901  0.68058383  0.04009660    -0.50900
C339        C  0.93902558  0.67148443  0.03990162     0.12300
C340        C  0.96338249  0.68493374  0.01131576     0.23200
C341        C  0.95688079  0.73421799  0.01128163    -0.51600
C342        C  0.98030430  0.72468689  0.01123125     0.12400
C343        C  0.91511702  0.68034850  0.48286671    -0.51100
C344        C  0.93873895  0.67125507  0.48292254     0.12900
H345        H  0.89602865  0.67255565  0.05855639     0.17500
H346        H  0.98246597  0.67729390  0.01126771     0.03200
H347        H  0.96474927  0.76131783  0.01127901     0.17800
H348        H  0.89554299  0.67216566  0.46456362     0.17600
C349        C  0.79409238  0.72971656  0.01138940     0.89300
C350        C  0.77628589  0.70566548  0.03986714    -0.50900
C351        C  0.77769377  0.67687204  0.03975933     0.12300
C352        C  0.79719692  0.67487870  0.01132159     0.23200
C353        C  0.83182580  0.73909142  0.01150231    -0.51600
C354        C  0.83341464  0.71018652  0.01146290     0.12400
C355        C  0.77652475  0.70586418  0.48274135    -0.51100
C356        C  0.77792788  0.67705770  0.48278411     0.12900
H357        H  0.76269796  0.71037674  0.05796146     0.17500
H358        H  0.79835584  0.65135749  0.01129806     0.03200
H359        H  0.85488914  0.76577404  0.01159771     0.17800
H360        H  0.76306448  0.71068864  0.46460667     0.17600
C361        C  0.28154796  0.96268756  0.01187395     0.89300
C362        C  0.29933226  0.95852187  0.48335100    -0.50900
C363        C  0.29796303  0.92814563  0.48344297     0.12300
C364        C  0.27846903  0.90432235  0.01187424     0.23200
C365        C  0.24388627  0.92986603  0.01182261    -0.51600
C366        C  0.24219058  0.89914122  0.01181541     0.12400
C367        C  0.29924871  0.95847877  0.04043425    -0.51100
C368        C  0.29789580  0.92811538  0.04034837     0.12900
H369        H  0.31297937  0.97846457  0.46530403     0.17500
H370        H  0.27736217  0.87954257  0.01187147     0.03200
H371        H  0.22078548  0.93082276  0.01177102     0.17800
H372        H  0.31286014  0.97840760  0.05850023     0.17600
C373        C  0.08306551  0.76489976  0.01149984     0.89300
C374        C  0.08702153  0.74707557  0.04007122    -0.50900
C375        C  0.11717397  0.74810633  0.04002352     0.12300
C376        C  0.14107508  0.76738395  0.01156697     0.23200
C377        C  0.11605535  0.80246621  0.01146014    -0.51600
C378        C  0.14660850  0.80385658  0.01150992     0.12400
C379        C  0.08702601  0.74696389  0.48302577    -0.51100
C380        C  0.11718748  0.74802195  0.48312300     0.12900
H381        H  0.06703071  0.73353752  0.05809233     0.17500
H382        H  0.16568687  0.76820204  0.01159464     0.03200
H383        H  0.11533365  0.82571819  0.01142467     0.17800
H384        H  0.06705965  0.73339954  0.46498818     0.17600
C385        C  0.97801237  0.26604286  0.01156923     0.89300
C386        C  0.97417010  0.28406857  0.04005052    -0.50900
C387        C  0.94405393  0.28312172  0.03997254     0.12300
C388        C  0.92010717  0.26376875  0.01152866     0.23200
C389        C  0.94494498  0.22854025  0.01163562    -0.51600
C390        C  0.91443861  0.22722236  0.01162297     0.12400
C391        C  0.97412939  0.28392266  0.48300604    -0.51100
C392        C  0.94401228  0.28295667  0.48302633     0.12900
H393        H  0.99414740  0.29755818  0.05808932     0.17500
H394        H  0.89553962  0.26303204  0.01150327     0.03200
H395        H  0.94558981  0.20524503  0.01169530     0.17800
H396        H  0.99407351  0.29730640  0.46492339     0.17600
C397        C  0.78065770  0.06773681  0.01165777     0.89300
C398        C  0.76274006  0.07163257  0.48310308    -0.50900
C399        C  0.76355992  0.10170903  0.48323517     0.12300
C400        C  0.78269287  0.12555314  0.01176462     0.23200
C401        C  0.81811548  0.10093177  0.01175422    -0.51600
C402        C  0.81927026  0.13138881  0.01179873     0.12400
C403        C  0.76259179  0.07146801  0.04017944    -0.51100
C404        C  0.76341353  0.10153917  0.04016995     0.12900
H405        H  0.74941193  0.05171479  0.46498425     0.17500
H406        H  0.78333444  0.15008435  0.01180839     0.03200
H407        H  0.84146443  0.10040727  0.01175455     0.17800
H408        H  0.74918067  0.05144899  0.05820381     0.17600
C409        C  0.31548206  0.25202033  0.01164890     0.89300
C410        C  0.33956643  0.26971579  0.48314626    -0.50900
C411        C  0.36828430  0.26817798  0.48335078     0.12300
C412        C  0.37015053  0.24867857  0.01184755     0.23200
C413        C  0.30602493  0.21419414  0.01168993    -0.51600
C414        C  0.33484548  0.21245948  0.01179161     0.12400
C415        C  0.33938870  0.26971631  0.04025241    -0.51100
C416        C  0.36809578  0.26816122  0.04025789     0.12900
H417        H  0.33499213  0.28339711  0.46503549     0.17500
H418        H  0.39361586  0.24745196  0.01193626     0.03200
H419        H  0.27932429  0.19117521  0.01163690     0.17800
H420        H  0.33470418  0.28339614  0.05827979     0.17600
C421        C  0.34320040  0.12755862  0.01193638     0.89300
C422        C  0.36516413  0.13059494  0.48329827    -0.50900
C423        C  0.37431741  0.10698006  0.48351867     0.12300
C424        C  0.36094423  0.08269156  0.01214720     0.23200
C425        C  0.31154555  0.08893867  0.01204604    -0.51600
C426        C  0.32123034  0.06560417  0.01214121     0.12400
C427        C  0.36525152  0.13085868  0.04058988    -0.51100
C428        C  0.37442903  0.10726864  0.04059217     0.12900
H429        H  0.37298360  0.14982270  0.46472488     0.17500
H430        H  0.36865559  0.06365464  0.01223325     0.03200
H431        H  0.28442034  0.08092728  0.01197776     0.17800
H432        H  0.37316441  0.15028871  0.05899250     0.17600
C433        C  0.26704307  0.30093161  0.01139259     0.89300
C434        C  0.28497184  0.32500044  0.03984182    -0.50900
C435        C  0.28371854  0.35388950  0.03971253     0.12300
C436        C  0.26430483  0.35599841  0.01125045     0.23200
C437        C  0.22938462  0.29180855  0.01151281    -0.51600
C438        C  0.22796691  0.32082205  0.01143165     0.12400
C439        C  0.28468897  0.32470233  0.48272488    -0.51100
C440        C  0.28345272  0.35360267  0.48271395     0.12900
H441        H  0.29840832  0.32016108  0.05799024     0.17500
H442        H  0.26332073  0.37962261  0.01118813     0.03200
H443        H  0.20623094  0.26518435  0.01163752     0.17800
H444        H  0.29798967  0.31970002  0.46456365     0.17600
C445        C  0.14256788  0.32817730  0.01132309     0.89300
C446        C  0.14536315  0.35001650  0.03993971    -0.50900
C447        C  0.12155094  0.35886894  0.03970601     0.12300
C448        C  0.09719487  0.34521134  0.01113162     0.23200
C449        C  0.10413688  0.29620521  0.01121030    -0.51600
C450        C  0.08052804  0.30552522  0.01113721     0.12400
C451        C  0.14561295  0.35011831  0.48269431    -0.51100
C452        C  0.12177465  0.35893931  0.48270715     0.12900
H453        H  0.16477512  0.35822573  0.05839879     0.17500
H454        H  0.07795525  0.35265251  0.01105640     0.03200
H455        H  0.09644801  0.26916304  0.01127686     0.17800
H456        H  0.16518168  0.35838368  0.46437351     0.17600
C457        C  0.16979400  0.32040930  0.01143247    -0.10400
C458        C  0.19531335  0.31889729  0.01146682    -0.12000
C459        C  0.28631841  0.25668589  0.01154066    -0.10400
C460        C  0.27144220  0.27159248  0.01147167    -0.12000
C461        C  0.33481814  0.15441298  0.01184375    -0.10400
C462        C  0.33280308  0.17967572  0.01182055    -0.12000
C463        C  0.01187265  0.26958063  0.01151865    -0.10400
C464        C  0.04285565  0.28145612  0.01132526    -0.12000
C465        C  0.88008863  0.19417751  0.01171124    -0.10400
C466        C  0.85212089  0.16591570  0.01177704    -0.12000
C467        C  0.28552876  0.99681132  0.01191027    -0.10400
C468        C  0.29746214  0.02784489  0.01202433    -0.12000
C469        C  0.20906796  0.86491798  0.01169167    -0.10400
C470        C  0.18094120  0.83685454  0.01158705    -0.12000
C471        C  0.01798317  0.74872799  0.01130357    -0.10400
C472        C  0.04905498  0.76102533  0.01142293    -0.12000
C473        C  0.86610376  0.71226772  0.01151890    -0.10400
C474        C  0.89148444  0.71057164  0.01151230    -0.12000
C475        C  0.78939805  0.75884003  0.01147797    -0.10400
C476        C  0.77419283  0.77340247  0.01163331    -0.12000
C477        C  0.76509903  0.00276961  0.01175748    -0.10400
C478        C  0.77711712  0.03382251  0.01164142    -0.12000
C479        C  0.72606276  0.87570012  0.01195973    -0.10400
C480        C  0.72773172  0.85024202  0.01199624    -0.12000
C481        C  0.41478998  0.10668687  0.43932573    -0.10400
C482        C  0.39561074  0.10561715  0.45935785    -0.12000
C483        C  0.39595884  0.10628460  0.06474984    -0.10400
C484        C  0.41524790  0.10754910  0.08477821    -0.12000
C485        C  0.46976325  0.10975656  0.24791742    -0.10400
C486        C  0.46971447  0.10970942  0.27630328    -0.12000
C487        C  0.72857367  0.11224718  0.08325299    -0.10400
C488        C  0.74466425  0.10795139  0.06342098    -0.12000
C489        C  0.59195268  0.12176381  0.13769127    -0.10400
C490        C  0.56562095  0.12167512  0.13813191    -0.12000
C491        C  0.74487648  0.10825969  0.46003523    -0.10400
C492        C  0.72881106  0.11270216  0.44029580    -0.12000
C493        C  0.67675451  0.11598509  0.27603262    -0.10400
C494        C  0.67678187  0.11598604  0.24762962    -0.12000
C495        C  0.59194084  0.12181457  0.38625099    -0.10400
C496        C  0.56561611  0.12173347  0.38579319    -0.12000
C497        C  0.41840316  0.30198230  0.44058381    -0.10400
C498        C  0.39583387  0.28636646  0.46022916    -0.12000
C499        C  0.50030775  0.23239338  0.36807926    -0.10400
C500        C  0.50050027  0.25869951  0.36841688    -0.12000
C501        C  0.75988730  0.64981602  0.45935773    -0.10400
C502        C  0.74417929  0.62753695  0.43948043    -0.12000
C503        C  0.60091517  0.47173761  0.38651627    -0.10400
C504        C  0.57309868  0.44377853  0.38654887    -0.12000
C505        C  0.39549368  0.28629479  0.06350503    -0.10400
C506        C  0.41806036  0.30184883  0.08315483    -0.12000
C507        C  0.47904556  0.34999263  0.24757629    -0.10400
C508        C  0.47907334  0.34998022  0.27596520    -0.12000
C509        C  0.50079230  0.23268411  0.15589679    -0.10400
C510        C  0.50085642  0.25891367  0.15546870    -0.12000
C511        C  0.74383357  0.62731635  0.08298592    -0.10400
C512        C  0.75956472  0.64956784  0.06310204    -0.12000
C513        C  0.69253107  0.56730526  0.24701177    -0.10400
C514        C  0.69253075  0.56736281  0.27539312    -0.12000
C515        C  0.57282829  0.44352804  0.13595708    -0.10400
C516        C  0.60068715  0.47144674  0.13592045    -0.12000
C517        C  0.93768028  0.30193017  0.06316282    -0.10400
C518        C  0.93377014  0.31831301  0.08295959    -0.12000
C519        C  0.77865081  0.24002302  0.15651811    -0.10400
C520        C  0.80652132  0.26787647  0.15641851    -0.12000
C521        C  0.93970747  0.64957415  0.06376933    -0.10400
C522        C  0.93765897  0.62994453  0.08381347    -0.12000
C523        C  0.81066748  0.54385318  0.15588912    -0.10400
C524        C  0.78443794  0.54380231  0.15566896    -0.12000
C525        C  0.92242544  0.48030126  0.13660713    -0.10400
C526        C  0.92273580  0.45420500  0.13603787    -0.12000
C527        C  0.93756505  0.30153427  0.45965778    -0.10400
C528        C  0.93360153  0.31774516  0.43972457    -0.12000
C529        C  0.92903112  0.37021512  0.24717675    -0.10400
C530        C  0.92912744  0.37024933  0.27557908    -0.12000
C531        C  0.77844760  0.24042424  0.36555584    -0.10400
C532        C  0.80638202  0.26822112  0.36558906    -0.12000
C533        C  0.93716210  0.62947062  0.43912027    -0.10400
C534        C  0.93921249  0.64917204  0.45909780    -0.12000
C535        C  0.78487301  0.54440519  0.36642233    -0.10400
C536        C  0.81104462  0.54434144  0.36622481    -0.12000
C537        C  0.93536017  0.57515767  0.27559965    -0.10400
C538        C  0.93541124  0.57528512  0.24719613    -0.12000
C539        C  0.92314977  0.48042269  0.38643842    -0.10400
C540        C  0.92355016  0.45436017  0.38697491    -0.12000
C541        C  0.66646291  0.92545028  0.06477424    -0.10400
C542        C  0.64730334  0.92446929  0.08477413    -0.12000
C543        C  0.31644480  0.92128019  0.06346333    -0.10400
C544        C  0.33245500  0.91671516  0.08317062    -0.12000
C545        C  0.46964350  0.90883000  0.13798965    -0.10400
C546        C  0.49617608  0.90929698  0.13809678    -0.12000
C547        C  0.64726779  0.92476279  0.43948056    -0.10400
C548        C  0.66634307  0.92559317  0.45948506    -0.12000
C549        C  0.59055339  0.92107227  0.24774745    -0.10400
C550        C  0.59062837  0.92107197  0.27614716    -0.12000
C551        C  0.33245810  0.91659274  0.44069349    -0.10400
C552        C  0.31648455  0.92125908  0.46035330    -0.12000
C553        C  0.38342154  0.91367692  0.27618006    -0.10400
C554        C  0.38333206  0.91358710  0.24777722    -0.12000
C555        C  0.46982986  0.90896393  0.38598189    -0.10400
C556        C  0.49635248  0.90941996  0.38582413    -0.12000
C557        C  0.31700144  0.40313574  0.08328136    -0.10400
C558        C  0.30158478  0.38100513  0.06324903    -0.12000
C559        C  0.64235971  0.72813710  0.08328344    -0.10400
C560        C  0.66481562  0.74354840  0.06352057    -0.12000
C561        C  0.56161858  0.79892166  0.15517455    -0.10400
C562        C  0.56121399  0.77248491  0.15479309    -0.12000
C563        C  0.48731768  0.58733808  0.13626696    -0.10400
C564        C  0.45943352  0.55946154  0.13633339    -0.12000
C565        C  0.31676307  0.40276337  0.43908385    -0.10400
C566        C  0.30129258  0.38060332  0.45908078    -0.12000
C567        C  0.36817983  0.46449502  0.27543516    -0.10400
C568        C  0.36807810  0.46447994  0.24706816    -0.12000
C569        C  0.64230114  0.72839999  0.44040011    -0.10400
C570        C  0.66481627  0.74387386  0.46010314    -0.12000
C571        C  0.56128462  0.77258343  0.36866796    -0.10400
C572        C  0.56188030  0.79912718  0.36818833    -0.12000
C573        C  0.58086236  0.67903427  0.24780825    -0.10400
C574        C  0.58070903  0.67896464  0.27619632    -0.12000
C575        C  0.45950897  0.55889761  0.38671280    -0.10400
C576        C  0.48725735  0.58688832  0.38686803    -0.12000
C577        C  0.12069800  0.38078258  0.06348709    -0.10400
C578        C  0.12262734  0.40047942  0.08341349    -0.12000
C579        C  0.27516126  0.48568114  0.15531738    -0.10400
C580        C  0.24890286  0.48552491  0.15577713    -0.12000
C581        C  0.12284222  0.40041745  0.43883562    -0.10400
C582        C  0.12099584  0.38079615  0.45880606    -0.12000
C583        C  0.27527542  0.48562103  0.36693289    -0.10400
C584        C  0.24904581  0.48554403  0.36651075    -0.12000
C585        C  0.12610342  0.45695756  0.24702565    -0.10400
C586        C  0.12615532  0.45704253  0.27542991    -0.12000
C587        C  0.12743305  0.71276688  0.44021916    -0.10400
C588        C  0.12358075  0.72918420  0.46001049    -0.12000
C589        C  0.13719650  0.57620443  0.38693156    -0.10400
C590        C  0.13759161  0.55014628  0.38640386    -0.12000
C591        C  0.25499365  0.76165223  0.36652253    -0.10400
C592        C  0.28308255  0.78923556  0.36634439    -0.12000
C593        C  0.12723111  0.71252297  0.08270593    -0.10400
C594        C  0.12344741  0.72911431  0.06305813    -0.12000
C595        C  0.13268895  0.66108092  0.27560177    -0.10400
C596        C  0.13264189  0.66100770  0.24717422    -0.12000
C597        C  0.13699289  0.57593089  0.13566143    -0.10400
C598        C  0.13726821  0.54981154  0.13612845    -0.12000
C599        C  0.28265721  0.78931497  0.15661185    -0.10400
C600        C  0.25461331  0.76167737  0.15640483    -0.12000
In601      In  0.15596006  0.67262411  0.65296858     1.36900
C602        C  0.22010598  0.73020499  0.65561657     0.80400
O603        O  0.15231092  0.68302025  0.60189473    -0.58000
O604        O  0.12422213  0.69290269  0.63485805    -0.48900
C605        C  0.14242500  0.60973501  0.63937423     0.73100
O606        O  0.17254333  0.63748168  0.63767434    -0.43800
C607        C  0.13947842  0.66387264  0.71386827     0.77800
O608        O  0.21410216  0.70139429  0.64610199    -0.55600
O609        O  0.11880925  0.66217043  0.69326494    -0.45700
O610        O  0.19353731  0.72958263  0.66409299    -0.52100
C611        C  0.13407812  0.69516236  0.60683011     0.88000
O612        O  0.11833726  0.61393393  0.64645523    -0.54000
O613        O  0.16760422  0.66921165  0.70330393    -0.57300
In614      In  0.15612036  0.67292315  0.86981485     1.36900
C615        C  0.22040084  0.73031192  0.86732634     0.80400
O616        O  0.16773943  0.66947127  0.81946184    -0.58000
O617        O  0.11894296  0.66240999  0.82951051    -0.48900
C618        C  0.14258749  0.61000846  0.88330243     0.73100
O619        O  0.17274952  0.63772830  0.88469261    -0.43800
C620        C  0.13430191  0.69552786  0.91598010     0.77800
O621        O  0.21417707  0.70150751  0.87711089    -0.55600
O622        O  0.12483625  0.69375887  0.88788156    -0.45700
O623        O  0.19397419  0.72980408  0.85856964    -0.52100
C624        C  0.13959179  0.66407820  0.80890251     0.88000
O625        O  0.11843025  0.61424088  0.87659952    -0.54000
O626        O  0.15212379  0.68293212  0.92092256    -0.57300
In627      In  0.15369627  0.47256310  0.86857898     1.36900
C628        C  0.21602367  0.48195030  0.86648127     0.80400
O629        O  0.14826493  0.45795657  0.91972904    -0.58000
O630        O  0.12160450  0.41687302  0.88637175    -0.48900
C631        C  0.14277428  0.52230663  0.88183253     0.73100
O632        O  0.17293654  0.52824932  0.87948527    -0.43800
C633        C  0.13453087  0.46230828  0.80842688     0.77800
O634        O  0.21164809  0.50422662  0.87871749    -0.55600
O635        O  0.11384132  0.44259389  0.82983416    -0.45700
O636        O  0.18900245  0.45559342  0.85475122    -0.52100
C637        C  0.13026410  0.42548397  0.91462684     0.88000
O638        O  0.11787324  0.49064868  0.87847365    -0.54000
O639        O  0.16415467  0.48708160  0.81783619    -0.57300
In640      In  0.15354355  0.47239823  0.65385505     1.36900
C641        C  0.21587921  0.48187542  0.65585602     0.80400
O642        O  0.16357491  0.48756567  0.70447290    -0.58000
O643        O  0.11410414  0.44172313  0.69272094    -0.48900
C644        C  0.14249157  0.52201348  0.64068266     0.73100
O645        O  0.17266005  0.52813110  0.64371160    -0.43800
C646        C  0.13015428  0.42551890  0.60767261     0.77800
O647        O  0.21131228  0.50378466  0.64310818    -0.55600
O648        O  0.12128767  0.41682062  0.63588296    -0.45700
O649        O  0.18904462  0.45582705  0.66813202    -0.52100
C650        C  0.13438997  0.46213743  0.71400968     0.88000
O651        O  0.11762814  0.49022835  0.64333846    -0.54000
O652        O  0.14841928  0.45801288  0.60267359    -0.57300
In653      In  0.56855781  0.68800113  0.87042390     1.36900
C654        C  0.56345630  0.74264902  0.86930102     0.80400
O655        O  0.58402003  0.69813515  0.92154248    -0.58000
O656        O  0.62359845  0.71148057  0.88781929    -0.48900
C657        C  0.51660128  0.62243632  0.88301543     0.75500
O658        O  0.51290607  0.64758032  0.88324467    -0.43800
C659        C  0.57650372  0.68117098  0.80944368     0.77800
O660        O  0.53898512  0.71307991  0.87932202    -0.55600
O661        O  0.59569683  0.68017996  0.83001356    -0.45700
O662        O  0.59028743  0.74425942  0.85992522    -0.52100
C663        C  0.61606268  0.71188717  0.91619557     0.88000
O664        O  0.54726316  0.63071880  0.87757336    -0.54000
O665        O  0.55331589  0.68502300  0.82001995    -0.57300
In666      In  0.35882580  0.47700773  0.86942846     1.36900
C667        C  0.30484434  0.48292970  0.86768013     0.80400
O668        O  0.36168288  0.49182570  0.81897567    -0.58000
O669        O  0.36705636  0.44981717  0.82932173    -0.48900
C670        C  0.42413786  0.52938139  0.88247616     0.73100
O671        O  0.39911848  0.53312887  0.88077482    -0.43800
C672        C  0.33362959  0.42910056  0.91498668     0.77800
O673        O  0.33382647  0.50627865  0.87956929    -0.55600
O674        O  0.33650487  0.42206921  0.88700917    -0.45700
O675        O  0.30345268  0.45672483  0.85668152    -0.52100
C676        C  0.36585742  0.46877360  0.80861381     0.88000
O677        O  0.41589053  0.49846975  0.87866928    -0.54000
O678        O  0.34540358  0.46078994  0.92006175    -0.57300
In679      In  0.56890804  0.68814744  0.65349333     1.36900
C680        C  0.56358270  0.74267366  0.65434986     0.80400
O681        O  0.55363716  0.68510769  0.70389525    -0.58000
O682        O  0.59614603  0.68048172  0.69401667    -0.48900
C683        C  0.51684204  0.62277383  0.64034813     0.73100
O684        O  0.51339257  0.64807047  0.64011513    -0.43800
C685        C  0.61624086  0.71179108  0.60760108     0.77800
O686        O  0.53859230  0.71263288  0.64585020    -0.55600
O687        O  0.62394476  0.71180158  0.63600428    -0.45700
O688        O  0.59107930  0.74484322  0.66238617    -0.52100
C689        C  0.57684282  0.68134667  0.71454196     0.88000
O690        O  0.54737434  0.63079775  0.64607423    -0.54000
O691        O  0.58413972  0.69778600  0.60232079    -0.57300
In692      In  0.35871857  0.47718245  0.65312140     1.36900
C693        C  0.30473011  0.48302696  0.65461352     0.80400
O694        O  0.34650123  0.46123539  0.60231270    -0.58000
O695        O  0.33556886  0.42205205  0.63564427    -0.48900
C696        C  0.42405481  0.52986820  0.64047914     0.73100
O697        O  0.39887142  0.53341233  0.64173916    -0.43800
C698        C  0.36558460  0.46874536  0.71391605     0.77800
O699        O  0.33375089  0.50643116  0.64281625    -0.55600
O700        O  0.36802626  0.45066572  0.69308816    -0.45700
O701        O  0.30330712  0.45681317  0.66561965    -0.52100
C702        C  0.33376174  0.42935623  0.60748713     0.88000
O703        O  0.41596654  0.49905405  0.64461306    -0.54000
O704        O  0.36016661  0.49099118  0.70369288    -0.57300
In705      In  0.37208495  0.88799582  0.86975366     1.36900
C706        C  0.31475419  0.82361292  0.86685029     0.80400
O707        O  0.36009654  0.88972393  0.92087186    -0.58000
O708        O  0.35254758  0.92010821  0.88863473    -0.48900
C709        C  0.43561309  0.90255345  0.88229827     0.73100
O710        O  0.40855739  0.87190039  0.88143917    -0.43800
C711        C  0.38059393  0.90605440  0.80928826     0.77800
O712        O  0.34307546  0.82985154  0.87799913    -0.55600
O713        O  0.38128102  0.92572695  0.83040588    -0.45700
O714        O  0.31587981  0.84995740  0.85675135    -0.52100
C715        C  0.34924841  0.90917789  0.91639182     0.88000
O716        O  0.43037719  0.92646598  0.87812949    -0.54000
O717        O  0.37629896  0.87810823  0.81912555    -0.57300
In718      In  0.57512530  0.89469256  0.86949889     1.36900
C719        C  0.56571750  0.83230490  0.86806146     0.80400
O720        O  0.56097688  0.88347361  0.81882206    -0.58000
O721        O  0.60492126  0.93428731  0.83050287    -0.48900
C722        C  0.52459032  0.90475568  0.88179208     0.73100
O723        O  0.51888589  0.87489881  0.87749014    -0.43800
C724        C  0.62227852  0.91802486  0.91542007     0.77800
O725        O  0.54453295  0.83730685  0.88171595    -0.55600
O726        O  0.63087111  0.92757193  0.88729577    -0.45700
O727        O  0.59115023  0.85880968  0.85476134    -0.52100
C728        C  0.58547868  0.91312413  0.80921399     0.88000
O729        O  0.55642571  0.92983864  0.88093696    -0.54000
O730        O  0.58982574  0.89949176  0.92047673    -0.57300
In731      In  0.37189520  0.88796998  0.65413291     1.36900
C732        C  0.31437405  0.82367368  0.65633380     0.80400
O733        O  0.37515302  0.87754132  0.70485838    -0.58000
O734        O  0.38185139  0.92593695  0.69352099    -0.48900
C735        C  0.43541513  0.90239896  0.64172043     0.73100
O736        O  0.40842105  0.87173592  0.64316098    -0.43800
C737        C  0.34924655  0.90934373  0.60751579     0.77800
O738        O  0.34281907  0.82988557  0.64552220    -0.55600
O739        O  0.35206059  0.91986651  0.63537599    -0.45700
O740        O  0.31545921  0.85000526  0.66642135    -0.52100
C741        C  0.38033623  0.90587593  0.71467392     0.88000
O742        O  0.43011684  0.92634308  0.64529466    -0.54000
O743        O  0.36053804  0.89027640  0.60295651    -0.57300
In744      In  0.57486672  0.89446686  0.65444455     1.36900
C745        C  0.56540050  0.83206355  0.65545351     0.80400
O746        O  0.58984476  0.89993054  0.60348818    -0.58000
O747        O  0.63074371  0.92664714  0.63704170    -0.48900
C748        C  0.52437240  0.90456127  0.64212485     0.73100
O749        O  0.51856137  0.87478668  0.64727715    -0.43800
C750        C  0.58527360  0.91308943  0.71468939     0.77800
O751        O  0.54433328  0.83718819  0.64173228    -0.55600
O752        O  0.60469895  0.93418568  0.69335662    -0.45700
O753        O  0.59067968  0.85842118  0.66903239    -0.52100
C754        C  0.62226463  0.91774766  0.60878072     0.88000
O755        O  0.55628763  0.92952010  0.64211659    -0.54000
O756        O  0.56071603  0.88344014  0.70513806    -0.57300
In757      In  0.90672388  0.55784379  0.86851481     1.36900
C758        C  0.84417857  0.54810724  0.86637684     0.80400
O759        O  0.91166886  0.57203047  0.91973042    -0.58000
O760        O  0.93855429  0.61335410  0.88660732    -0.48900
C761        C  0.91783562  0.50816911  0.88173526     0.73100
O762        O  0.88766668  0.50201518  0.87854018    -0.43800
C763        C  0.92660923  0.56930304  0.80850865     0.77800
O764        O  0.84854652  0.52559724  0.87808161    -0.55600
O765        O  0.94721041  0.58828159  0.83026332    -0.45700
O766        O  0.87132030  0.57487737  0.85529074    -0.52100
C767        C  0.92973732  0.60453932  0.91480004     0.88000
O768        O  0.94263974  0.53996886  0.87912111    -0.54000
O769        O  0.89673724  0.54462819  0.81749522    -0.57300
In770      In  0.90488071  0.35772050  0.86947781     1.36900
C771        C  0.84080822  0.29988601  0.86648229     0.80400
O772        O  0.89369279  0.36147882  0.81914957    -0.58000
O773        O  0.94256733  0.36881251  0.82951552    -0.48900
C774        C  0.91815052  0.42055281  0.88318710     0.73100
O775        O  0.88789754  0.39288305  0.88355944    -0.43800
C776        C  0.92658894  0.33491343  0.91552688     0.77800
O777        O  0.84670621  0.32837667  0.87684552    -0.55600
O778        O  0.93652664  0.33726947  0.88750965    -0.45700
O779        O  0.86743639  0.30097044  0.85735600    -0.52100
C780        C  0.92200944  0.36711611  0.80879832     0.88000
O781        O  0.94246565  0.41629831  0.87735342    -0.54000
O782        O  0.90825169  0.34694219  0.92045144    -0.57300
In783      In  0.90667572  0.55812801  0.65431199     1.36900
C784        C  0.84392243  0.54789904  0.65591060     0.80400
O785        O  0.89667829  0.54511568  0.70532343    -0.58000
O786        O  0.94733605  0.58841499  0.69251664    -0.48900
C787        C  0.91732950  0.50816126  0.64134231     0.73100
O788        O  0.88727932  0.50210331  0.64521928    -0.43800
C789        C  0.93007104  0.60502757  0.60818344     0.77800
O790        O  0.84877914  0.52600428  0.64354796    -0.55600
O791        O  0.93790936  0.61375559  0.63652755    -0.45700
O792        O  0.87069376  0.57433349  0.66784406    -0.52100
C793        C  0.92665148  0.56957883  0.71428756     0.88000
O794        O  0.94224846  0.53999646  0.64324153    -0.54000
O795        O  0.91277070  0.57256445  0.60309300    -0.57300
In796      In  0.90467633  0.35783696  0.65326821     1.36900
C797        C  0.84082624  0.29969718  0.65575369     0.80400
O798        O  0.90826946  0.34738604  0.60223468    -0.58000
O799        O  0.93672132  0.33790676  0.63514348    -0.48900
C800        C  0.91747933  0.42048424  0.63979429     0.73100
O801        O  0.88727328  0.39274736  0.63957142    -0.43800
C802        C  0.92179052  0.36704375  0.71397703     0.77800
O803        O  0.84649884  0.32825327  0.64584103    -0.55600
O804        O  0.94250506  0.36922792  0.69317775    -0.45700
O805        O  0.86755609  0.30088546  0.66472321    -0.52100
C806        C  0.92674881  0.33550825  0.60713333     0.88000
O807        O  0.94193586  0.41639112  0.64540756    -0.54000
O808        O  0.89325977  0.36094443  0.70371309    -0.57300
In809      In  0.70147975  0.55351036  0.65311280     1.36900
C810        C  0.75506109  0.54684366  0.65506204     0.80400
O811        O  0.71469436  0.56933225  0.60231934    -0.58000
O812        O  0.72410352  0.60840439  0.63512954    -0.48900
C813        C  0.63608726  0.50103688  0.64006420     0.73100
O814        O  0.66126050  0.49748351  0.64108814    -0.43800
C815        C  0.69475517  0.56263255  0.71387056     0.77800
O816        O  0.72567822  0.52325005  0.64403967    -0.55600
O817        O  0.69371306  0.58145803  0.69292310    -0.45700
O818        O  0.75704990  0.57365558  0.66521613    -0.52100
C819        C  0.72677976  0.60112248  0.60719643     0.88000
O820        O  0.64421013  0.53181486  0.64454756    -0.54000
O821        O  0.69860927  0.53927392  0.70377944    -0.57300
In822      In  0.49182594  0.34235072  0.65319614     1.36900
C823        C  0.49800213  0.28839057  0.65477851     0.80400
O824        O  0.50871700  0.34811863  0.70339483    -0.58000
O825        O  0.46235233  0.34624120  0.69395086    -0.48900
C826        C  0.54345551  0.40800534  0.64008928     0.73100
O827        O  0.54705232  0.38282961  0.63929816    -0.43800
C828        C  0.44439548  0.31841127  0.60728267     0.77800
O829        O  0.52227629  0.31813994  0.64502522    -0.55600
O830        O  0.43720627  0.32060029  0.63537204    -0.45700
O831        O  0.47074769  0.28618782  0.66372088    -0.52100
C832        C  0.48341926  0.34834296  0.71427443     0.88000
O833        O  0.51295656  0.39974937  0.64638942    -0.54000
O834        O  0.47613010  0.33040568  0.60221059    -0.57300
In835      In  0.70169115  0.55377319  0.86928687     1.36900
C836        C  0.75543035  0.54735112  0.86712407     0.80400
O837        O  0.69778585  0.53889535  0.81870963    -0.58000
O838        O  0.69464648  0.58219687  0.82942404    -0.48900
C839        C  0.63631856  0.50131203  0.88237547     0.73100
O840        O  0.66134629  0.49759727  0.88054466    -0.43800
C841        C  0.72709000  0.60130979  0.91528283     0.77800
O842        O  0.72624849  0.52390639  0.87859056    -0.55600
O843        O  0.72366514  0.60845604  0.88751479    -0.45700
O844        O  0.75715286  0.57391546  0.85664331    -0.52100
C845        C  0.69476563  0.56276737  0.80854666     0.88000
O846        O  0.64458858  0.53225495  0.87873671    -0.54000
O847        O  0.71569907  0.56965022  0.91999030    -0.57300
In848      In  0.49192958  0.34242039  0.87030823     1.36900
C849        C  0.49784587  0.28830703  0.86897898     0.80400
O850        O  0.47653636  0.33142812  0.92144493    -0.58000
O851        O  0.43717013  0.31993319  0.88815312    -0.48900
C852        C  0.54372061  0.40820903  0.88268606     0.73100
O853        O  0.54730341  0.38302340  0.88374503    -0.43800
C854        C  0.48347416  0.34829680  0.80925667     0.77800
O855        O  0.52191606  0.31786052  0.87931249    -0.55600
O856        O  0.46288717  0.34706321  0.82964768    -0.45700
O857        O  0.47096484  0.28640836  0.85932181    -0.52100
C858        C  0.44462442  0.31857995  0.91635180     0.88000
O859        O  0.51319116  0.39990338  0.87645714    -0.54000
O860        O  0.50831993  0.34722109  0.82005639    -0.57300
In861      In  0.68919421  0.14165697  0.86966121     1.36900
C862        C  0.74677600  0.20598422  0.86640178     0.80400
O863        O  0.70065394  0.13914026  0.92075402    -0.58000
O864        O  0.70912296  0.10970975  0.88814493    -0.48900
C865        C  0.62598279  0.12772684  0.88272780     0.73100
O866        O  0.65336139  0.15819239  0.88264010    -0.43800
C867        C  0.67994007  0.12362160  0.80915472     0.77800
O868        O  0.71825912  0.20000459  0.87674876    -0.55600
O869        O  0.67868950  0.10358149  0.83018962    -0.45700
O870        O  0.74578155  0.17936658  0.85736134    -0.52100
C871        C  0.71196370  0.12011595  0.91604805     0.88000
O872        O  0.63074594  0.10360608  0.87773204    -0.54000
O873        O  0.68517867  0.15193535  0.81908998    -0.57300
In874      In  0.68918630  0.14137448  0.65391254     1.36900
C875        C  0.74693444  0.20561357  0.65610367     0.80400
O876        O  0.68622135  0.15227545  0.70454961    -0.58000
O877        O  0.67785408  0.10309291  0.69344847    -0.48900
C878        C  0.62600611  0.12769239  0.64121761     0.73100
O879        O  0.65329512  0.15819918  0.64224611    -0.43800
C880        C  0.71174338  0.11958793  0.60758242     0.77800
O881        O  0.71842924  0.19950881  0.64557674    -0.55600
O882        O  0.70984589  0.10999575  0.63565928    -0.45700
O883        O  0.74584947  0.17916690  0.66585398    -0.52100
C884        C  0.68003955  0.12358876  0.71449582     0.88000
O885        O  0.63084951  0.10347390  0.64518155    -0.54000
O886        O  0.69953760  0.13780470  0.60273924    -0.57300
In887      In  0.48728139  0.13711044  0.65483613     1.36900
C888        C  0.49700338  0.19956987  0.65613118     0.80400
O889        O  0.47274335  0.13303167  0.60386138    -0.58000
O890        O  0.43162718  0.10449047  0.63689922    -0.48900
C891        C  0.53760048  0.12665069  0.64247027     0.73100
O892        O  0.54360305  0.15646079  0.64784528    -0.43800
C893        C  0.47563474  0.11804380  0.71495625     0.77800
O894        O  0.51862398  0.19469638  0.64320319    -0.55600
O895        O  0.45661623  0.09715210  0.69336074    -0.45700
O896        O  0.47109235  0.17295514  0.66880802    -0.52100
C897        C  0.44026791  0.11435090  0.60884788     0.88000
O898        O  0.50563030  0.10186002  0.64242643    -0.54000
O899        O  0.50045223  0.14772878  0.70574729    -0.57300
In900      In  0.48702728  0.13687049  0.86938308     1.36900
C901        C  0.49657349  0.19929469  0.86797169     0.80400
O902        O  0.50051274  0.14747076  0.81855964    -0.58000
O903        O  0.45623154  0.09707845  0.83081038    -0.48900
C904        C  0.53752785  0.12661069  0.88150928     0.73100
O905        O  0.54340859  0.15642041  0.87642728    -0.43800
C906        C  0.43987619  0.11362584  0.91529145     0.77800
O907        O  0.51760192  0.19423309  0.88185402    -0.55600
O908        O  0.43133097  0.10378512  0.88722495    -0.45700
O909        O  0.47130936  0.17287905  0.85445236    -0.52100
C910        C  0.47550856  0.11791041  0.80928024     0.88000
O911        O  0.50560352  0.10172362  0.88134225    -0.54000
O912        O  0.47232809  0.13253202  0.92031692    -0.57300
C913        C  0.71819869  0.90291057  0.51198169     0.89300
C914        C  0.69623925  0.90003092  0.98340451    -0.50900
C915        C  0.68754940  0.92400170  0.98357974     0.12300
C916        C  0.70134004  0.94844944  0.51209291     0.23200
C917        C  0.75019367  0.94136150  0.51190311    -0.51600
C918        C  0.74096870  0.96505440  0.51195168     0.12400
C919        C  0.69643983  0.90008270  0.54069189    -0.51100
C920        C  0.68772703  0.92402753  0.54063243     0.12900
H921        H  0.68808093  0.88064946  0.96491354     0.17500
H922        H  0.69399514  0.96777245  0.51214115     0.03200
H923        H  0.77720184  0.94900691  0.51177359     0.17800
H924        H  0.68835842  0.88069355  0.55916222     0.17600
C925        C  0.74492263  0.77788292  0.51175791     0.89300
C926        C  0.72094546  0.76030803  0.98317408    -0.50900
C927        C  0.69223458  0.76185971  0.98334909     0.12300
C928        C  0.69025845  0.78122468  0.51190016     0.23200
C929        C  0.75437363  0.81568291  0.51192548    -0.51600
C930        C  0.72557536  0.81742466  0.51198656     0.12400
C931        C  0.72091203  0.76004454  0.54028149    -0.51100
C932        C  0.69220487  0.76161033  0.54025671     0.12900
H933        H  0.72560137  0.74673307  0.96501473     0.17500
H934        H  0.66680555  0.78247310  0.51195661     0.03200
H935        H  0.78107534  0.83869999  0.51194841     0.17800
H936        H  0.72556007  0.74632743  0.55829553     0.17600
C937        C  0.91839657  0.70244378  0.51144142     0.89300
C938        C  0.91540895  0.68058370  0.54009656    -0.50900
C939        C  0.93902550  0.67148428  0.53990153     0.12300
C940        C  0.96338245  0.68493368  0.51131570     0.23200
C941        C  0.95688073  0.73421791  0.51128167    -0.51600
C942        C  0.98030425  0.72468683  0.51123127     0.12400
C943        C  0.91511704  0.68034850  0.98286675    -0.51100
C944        C  0.93873898  0.67125507  0.98292260     0.12900
H945        H  0.89602862  0.67255554  0.55855637     0.17500
H946        H  0.98246594  0.67729385  0.51126757     0.03200
H947        H  0.96474920  0.76131778  0.51127908     0.17800
H948        H  0.89554305  0.67216568  0.96456365     0.17600
C949        C  0.79409240  0.72971658  0.51138942     0.89300
C950        C  0.77628593  0.70566550  0.53986717    -0.50900
C951        C  0.77769380  0.67687207  0.53975935     0.12300
C952        C  0.79719695  0.67487873  0.51132159     0.23200
C953        C  0.83182581  0.73909146  0.51150229    -0.51600
C954        C  0.83341468  0.71018657  0.51146286     0.12400
C955        C  0.77652471  0.70586416  0.98274134    -0.51100
C956        C  0.77792789  0.67705771  0.98278410     0.12900
H957        H  0.76269802  0.71037677  0.55796152     0.17500
H958        H  0.79835585  0.65135751  0.51129807     0.03200
H959        H  0.85488916  0.76577412  0.51159770     0.17800
H960        H  0.76306434  0.71068852  0.96460671     0.17600
C961        C  0.28154785  0.96268750  0.51187395     0.89300
C962        C  0.29933231  0.95852190  0.98335099    -0.50900
C963        C  0.29796302  0.92814562  0.98344295     0.12300
C964        C  0.27846902  0.90432237  0.51187426     0.23200
C965        C  0.24388619  0.92986597  0.51182260    -0.51600
C966        C  0.24219056  0.89914121  0.51181538     0.12400
C967        C  0.29924857  0.95847875  0.54043427    -0.51100
C968        C  0.29789573  0.92811540  0.54034841     0.12900
H969        H  0.31297939  0.97846455  0.96530401     0.17500
H970        H  0.27736219  0.87954261  0.51187152     0.03200
H971        H  0.22078531  0.93082263  0.51177101     0.17800
H972        H  0.31285998  0.97840761  0.55850022     0.17600
C973        C  0.08306553  0.76489983  0.51149983     0.89300
C974        C  0.08702159  0.74707569  0.54007123    -0.50900
C975        C  0.11717400  0.74810642  0.54002356     0.12300
C976        C  0.14107509  0.76738399  0.51156698     0.23200
C977        C  0.11605539  0.80246628  0.51146007    -0.51600
C978        C  0.14660853  0.80385663  0.51150990     0.12400
C979        C  0.08702600  0.74696384  0.98302577    -0.51100
C980        C  0.11718749  0.74802195  0.98312299     0.12900
H981        H  0.06703077  0.73353765  0.55809235     0.17500
H982        H  0.16568689  0.76820207  0.51159465     0.03200
H983        H  0.11533371  0.82571828  0.51142454     0.17800
H984        H  0.06705962  0.73339946  0.96498817     0.17600
C985        C  0.97801234  0.26604282  0.51156924     0.89300
C986        C  0.97417008  0.28406857  0.54005050    -0.50900
C987        C  0.94405390  0.28312174  0.53997246     0.12300
C988        C  0.92010716  0.26376874  0.51152859     0.23200
C989        C  0.94494496  0.22854024  0.51163564    -0.51600
C990        C  0.91443857  0.22722233  0.51162296     0.12400
C991        C  0.97412935  0.28392267  0.98300606    -0.51100
C992        C  0.94401228  0.28295668  0.98302636     0.12900
H993        H  0.99414724  0.29755804  0.55808934     0.17500
H994        H  0.89553958  0.26303206  0.51150312     0.03200
H995        H  0.94558983  0.20524505  0.51169537     0.17800
H996        H  0.99407343  0.29730636  0.96492328     0.17600
C997        C  0.78065768  0.06773677  0.51165780     0.89300
C998        C  0.76274010  0.07163259  0.98310304    -0.50900
C999        C  0.76355990  0.10170901  0.98323514     0.12300
C1000       C  0.78269288  0.12555310  0.51176468     0.23200
C1001       C  0.81811545  0.10093171  0.51175426    -0.51600
C1002       C  0.81927027  0.13138875  0.51179878     0.12400
C1003       C  0.76259177  0.07146795  0.54017947    -0.51100
C1004       C  0.76341350  0.10153909  0.54016998     0.12900
H1005       H  0.74941203  0.05171480  0.96498417     0.17500
H1006       H  0.78333449  0.15008434  0.51180851     0.03200
H1007       H  0.84146441  0.10040718  0.51175458     0.17800
H1008       H  0.74918063  0.05144890  0.55820383     0.17600
C1009       C  0.31548203  0.25202029  0.51164892     0.89300
C1010       C  0.33956648  0.26971584  0.98314625    -0.50900
C1011       C  0.36828433  0.26817799  0.98335075     0.12300
C1012       C  0.37015050  0.24867856  0.51184756     0.23200
C1013       C  0.30602488  0.21419410  0.51168994    -0.51600
C1014       C  0.33484547  0.21245947  0.51179161     0.12400
C1015       C  0.33938864  0.26971623  0.54025244    -0.51100
C1016       C  0.36809574  0.26816118  0.54025790     0.12900
H1017       H  0.33499223  0.28339724  0.96503553     0.17500
H1018       H  0.39361585  0.24745196  0.51193626     0.03200
H1019       H  0.27932428  0.19117521  0.51163694     0.17800
H1020       H  0.33470414  0.28339607  0.55827980     0.17600
C1021       C  0.34320040  0.12755860  0.51193636     0.89300
C1022       C  0.36516416  0.13059494  0.98329830    -0.50900
C1023       C  0.37431741  0.10698004  0.98351869     0.12300
C1024       C  0.36094426  0.08269157  0.51214717     0.23200
C1025       C  0.31154556  0.08893864  0.51204604    -0.51600
C1026       C  0.32123035  0.06560414  0.51214117     0.12400
C1027       C  0.36525158  0.13085873  0.54058983    -0.51100
C1028       C  0.37442905  0.10726866  0.54059215     0.12900
H1029       H  0.37298367  0.14982274  0.96472488     0.17500
H1030       H  0.36865565  0.06365467  0.51223321     0.03200
H1031       H  0.28442032  0.08092720  0.51197784     0.17800
H1032       H  0.37316454  0.15028881  0.55899237     0.17600
C1033       C  0.26704313  0.30093164  0.51139261     0.89300
C1034       C  0.28497186  0.32500049  0.53984181    -0.50900
C1035       C  0.28371849  0.35388951  0.53971252     0.12300
C1036       C  0.26430482  0.35599841  0.51125040     0.23200
C1037       C  0.22938464  0.29180857  0.51151282    -0.51600
C1038       C  0.22796694  0.32082207  0.51143163     0.12400
C1039       C  0.28468892  0.32470231  0.98272486    -0.51100
C1040       C  0.28345271  0.35360271  0.98271397     0.12900
H1041       H  0.29840838  0.32016118  0.55799024     0.17500
H1042       H  0.26332069  0.37962257  0.51118806     0.03200
H1043       H  0.20623100  0.26518439  0.51163757     0.17800
H1044       H  0.29798956  0.31969999  0.96456367     0.17600
C1045       C  0.14256795  0.32817734  0.51132310     0.89300
C1046       C  0.14536320  0.35001657  0.53993972    -0.50900
C1047       C  0.12155100  0.35886902  0.53970600     0.12300
C1048       C  0.09719496  0.34521142  0.51113161     0.23200
C1049       C  0.10413693  0.29620527  0.51121031    -0.51600
C1050       C  0.08052810  0.30552528  0.51113723     0.12400
C1051       C  0.14561289  0.35011830  0.98269432    -0.51100
C1052       C  0.12177454  0.35893927  0.98270716     0.12900
H1053       H  0.16477515  0.35822577  0.55839882     0.17500
H1054       H  0.07795539  0.35265261  0.51105635     0.03200
H1055       H  0.09644802  0.26916304  0.51127689     0.17800
H1056       H  0.16518165  0.35838375  0.96437360     0.17600
C1057       C  0.16979406  0.32040936  0.51143249    -0.10400
C1058       C  0.19531341  0.31889735  0.51146685    -0.12000
C1059       C  0.28631844  0.25668591  0.51154070    -0.10400
C1060       C  0.27144227  0.27159254  0.51147172    -0.12000
C1061       C  0.33481818  0.15441301  0.51184377    -0.10400
C1062       C  0.33280311  0.17967574  0.51182058    -0.12000
C1063       C  0.01187266  0.26958061  0.51151870    -0.10400
C1064       C  0.04285568  0.28145618  0.51132530    -0.12000
C1065       C  0.88008863  0.19417746  0.51171127    -0.10400
C1066       C  0.85212091  0.16591562  0.51177708    -0.12000
C1067       C  0.28552865  0.99681124  0.51191029    -0.10400
C1068       C  0.29746212  0.02784484  0.51202433    -0.12000
C1069       C  0.20906799  0.86491798  0.51169158    -0.10400
C1070       C  0.18094123  0.83685457  0.51158701    -0.12000
C1071       C  0.01798312  0.74872796  0.51130360    -0.10400
C1072       C  0.04905495  0.76102532  0.51142295    -0.12000
C1073       C  0.86610379  0.71226779  0.51151885    -0.10400
C1074       C  0.89148445  0.71057166  0.51151225    -0.12000
C1075       C  0.78939806  0.75884004  0.51147797    -0.10400
C1076       C  0.77419286  0.77340250  0.51163322    -0.12000
C1077       C  0.76509902  0.00276958  0.51175751    -0.10400
C1078       C  0.77711713  0.03382249  0.51164144    -0.12000
C1079       C  0.72606282  0.87570014  0.51195970    -0.10400
C1080       C  0.72773179  0.85024205  0.51199614    -0.12000
C1081       C  0.41479006  0.10668693  0.93932576    -0.10400
C1082       C  0.39561074  0.10561709  0.95935787    -0.12000
C1083       C  0.39595888  0.10628469  0.56474983    -0.10400
C1084       C  0.41524795  0.10754915  0.58477818    -0.12000
C1085       C  0.46976315  0.10975655  0.74791743    -0.10400
C1086       C  0.46971435  0.10970935  0.77630331    -0.12000
C1087       C  0.72857374  0.11224721  0.58325303    -0.10400
C1088       C  0.74466423  0.10795131  0.56342102    -0.12000
C1089       C  0.59195262  0.12176365  0.63769130    -0.10400
C1090       C  0.56562090  0.12167498  0.63813195    -0.12000
C1091       C  0.74487640  0.10825961  0.96003526    -0.10400
C1092       C  0.72881102  0.11270215  0.94029585    -0.12000
C1093       C  0.67675452  0.11598505  0.77603266    -0.10400
C1094       C  0.67678193  0.11598610  0.74762966    -0.12000
C1095       C  0.59194083  0.12181455  0.88625103    -0.10400
C1096       C  0.56561613  0.12173348  0.88579323    -0.12000
C1097       C  0.41840317  0.30198235  0.94058379    -0.10400
C1098       C  0.39583391  0.28636650  0.96022916    -0.12000
C1099       C  0.50030758  0.23239328  0.86807919    -0.10400
C1100       C  0.50050013  0.25869943  0.86841686    -0.12000
C1101       C  0.75988725  0.64981604  0.95935773    -0.10400
C1102       C  0.74417928  0.62753700  0.93948042    -0.12000
C1103       C  0.60091516  0.47173764  0.88651630    -0.10400
C1104       C  0.57309870  0.44377853  0.88654890    -0.12000
C1105       C  0.39549368  0.28629484  0.56350500    -0.10400
C1106       C  0.41806038  0.30184884  0.58315479    -0.12000
C1107       C  0.47904561  0.34999267  0.74757630    -0.10400
C1108       C  0.47907332  0.34998012  0.77596521    -0.12000
C1109       C  0.50079233  0.23268414  0.65589682    -0.10400
C1110       C  0.50085640  0.25891366  0.65546874    -0.12000
C1111       C  0.74383362  0.62731637  0.58298596    -0.10400
C1112       C  0.75956477  0.64956787  0.56310209    -0.12000
C1113       C  0.69253110  0.56730524  0.74701178    -0.10400
C1114       C  0.69253075  0.56736279  0.77539313    -0.12000
C1115       C  0.57282833  0.44352797  0.63595710    -0.10400
C1116       C  0.60068718  0.47144668  0.63592048    -0.12000
C1117       C  0.93768024  0.30193012  0.56316280    -0.10400
C1118       C  0.93377014  0.31831299  0.58295957    -0.12000
C1119       C  0.77865074  0.24002303  0.65651799    -0.10400
C1120       C  0.80652123  0.26787647  0.65641852    -0.12000
C1121       C  0.93970744  0.64957404  0.56376924    -0.10400
C1122       C  0.93765897  0.62994449  0.58381343    -0.12000
C1123       C  0.81066751  0.54385318  0.65588911    -0.10400
C1124       C  0.78443794  0.54380226  0.65566898    -0.12000
C1125       C  0.92242537  0.48030124  0.63660717    -0.10400
C1126       C  0.92273568  0.45420496  0.63603789    -0.12000
C1127       C  0.93756499  0.30153418  0.95965774    -0.10400
C1128       C  0.93360157  0.31774519  0.93972458    -0.12000
C1129       C  0.92903118  0.37021510  0.74717674    -0.10400
C1130       C  0.92912744  0.37024924  0.77557909    -0.12000
C1131       C  0.77844764  0.24042426  0.86555588    -0.10400
C1132       C  0.80638207  0.26822109  0.86558908    -0.12000
C1133       C  0.93716207  0.62947054  0.93912034    -0.10400
C1134       C  0.93921252  0.64917202  0.95909784    -0.12000
C1135       C  0.78487301  0.54440518  0.86642235    -0.10400
C1136       C  0.81104462  0.54434143  0.86622484    -0.12000
C1137       C  0.93536013  0.57515761  0.77559963    -0.10400
C1138       C  0.93541117  0.57528508  0.74719611    -0.12000
C1139       C  0.92314981  0.48042272  0.88643840    -0.10400
C1140       C  0.92355012  0.45436016  0.88697483    -0.12000
C1141       C  0.66646295  0.92545028  0.56477428    -0.10400
C1142       C  0.64730334  0.92446921  0.58477418    -0.12000
C1143       C  0.31644487  0.92128031  0.56346332    -0.10400
C1144       C  0.33245512  0.91671529  0.58317057    -0.12000
C1145       C  0.46964347  0.90883001  0.63798968    -0.10400
C1146       C  0.49617607  0.90929703  0.63809682    -0.12000
C1147       C  0.64726774  0.92476273  0.93948059    -0.10400
C1148       C  0.66634304  0.92559315  0.95948508    -0.12000
C1149       C  0.59055338  0.92107238  0.74774746    -0.10400
C1150       C  0.59062835  0.92107209  0.77614717    -0.12000
C1151       C  0.33245811  0.91659277  0.94069350    -0.10400
C1152       C  0.31648455  0.92125911  0.96035328    -0.12000
C1153       C  0.38342151  0.91367701  0.77618007    -0.10400
C1154       C  0.38333200  0.91358716  0.74777722    -0.12000
C1155       C  0.46982980  0.90896380  0.88598180    -0.10400
C1156       C  0.49635248  0.90941993  0.88582411    -0.12000
C1157       C  0.31700139  0.40313570  0.58328137    -0.10400
C1158       C  0.30158466  0.38100513  0.56324903    -0.12000
C1159       C  0.64235981  0.72813721  0.58328347    -0.10400
C1160       C  0.66481570  0.74354851  0.56352059    -0.12000
C1161       C  0.56161864  0.79892170  0.65517459    -0.10400
C1162       C  0.56121397  0.77248490  0.65479312    -0.12000
C1163       C  0.48731775  0.58733817  0.63626700    -0.10400
C1164       C  0.45943357  0.55946163  0.63633344    -0.12000
C1165       C  0.31676316  0.40276346  0.93908386    -0.10400
C1166       C  0.30129265  0.38060341  0.95908081    -0.12000
C1167       C  0.36817985  0.46449502  0.77543515    -0.10400
C1168       C  0.36807811  0.46447991  0.74706815    -0.12000
C1169       C  0.64230116  0.72840016  0.94040008    -0.10400
C1170       C  0.66481629  0.74387396  0.96010312    -0.12000
C1171       C  0.56128467  0.77258348  0.86866802    -0.10400
C1172       C  0.56188038  0.79912726  0.86818837    -0.12000
C1173       C  0.58086228  0.67903415  0.74780823    -0.10400
C1174       C  0.58070900  0.67896463  0.77619630    -0.12000
C1175       C  0.45950892  0.55889752  0.88671271    -0.10400
C1176       C  0.48725732  0.58688823  0.88686799    -0.12000
C1177       C  0.12069800  0.38078264  0.56348711    -0.10400
C1178       C  0.12262737  0.40047950  0.58341353    -0.12000
C1179       C  0.27516125  0.48568115  0.65531740    -0.10400
C1180       C  0.24890283  0.48552488  0.65577717    -0.12000
C1181       C  0.12284231  0.40041756  0.93883565    -0.10400
C1182       C  0.12099584  0.38079621  0.95880610    -0.12000
C1183       C  0.27527536  0.48562089  0.86693293    -0.10400
C1184       C  0.24904575  0.48554391  0.86651080    -0.12000
C1185       C  0.12610351  0.45695766  0.74702568    -0.10400
C1186       C  0.12615535  0.45704255  0.77542993    -0.12000
C1187       C  0.12743311  0.71276703  0.94021909    -0.10400
C1188       C  0.12358083  0.72918431  0.96001046    -0.12000
C1189       C  0.13719633  0.57620435  0.88693160    -0.10400
C1190       C  0.13759153  0.55014626  0.88640390    -0.12000
C1191       C  0.25499350  0.76165219  0.86652252    -0.10400
C1192       C  0.28308237  0.78923557  0.86634442    -0.12000
C1193       C  0.12723098  0.71252289  0.58270596    -0.10400
C1194       C  0.12344737  0.72911433  0.56305819    -0.12000
C1195       C  0.13268899  0.66108096  0.77560174    -0.10400
C1196       C  0.13264183  0.66100761  0.74717420    -0.12000
C1197       C  0.13699282  0.57593088  0.63566142    -0.10400
C1198       C  0.13726817  0.54981155  0.63612849    -0.12000
C1199       C  0.28265718  0.78931494  0.65661181    -0.10400
C1200       C  0.25461322  0.76167742  0.65640468    -0.12000
loop_ 
_geom_bond_atom_site_label_1 
_geom_bond_atom_site_label_2 
_geom_bond_distance 
_geom_bond_site_symmetry_2 
_ccdc_geom_bond_type 
In1           O3   2.252       .  S
In1           O4   2.260       .  S
In1          O12   2.268       .  S
In1           O6   2.233       .  S
In1           O8   2.245       .  S
In1           O9   2.275       .  S
In1          O10   2.240       .  S
In1          O13   2.235       .  S
C2            O8   1.259       .  A
C2           O10   1.259       .  A
C2          C600   1.433       .  S
O3           C11   1.257       .  A
O4           C11   1.260       .  A
C5           O12   1.262       .  A
C5            O6   1.257       .  A
C5          C597   1.438       .  S
C7            O9   1.263       .  A
C7           O13   1.258       .  A
C7          C596   1.442       .  S
C11         C593   1.439       .  S
In14         O16   2.236       .  S
In14         O17   2.276       .  S
In14         O25   2.269       .  S
In14         O19   2.232       .  S
In14         O21   2.245       .  S
In14         O22   2.261       .  S
In14         O23   2.240       .  S
In14         O26   2.252       .  S
C15          O21   1.259       .  A
C15          O23   1.259       .  A
C15         C591   1.432       .  S
O16          C24   1.257       .  A
O17          C24   1.263       .  A
C18          O25   1.263       .  A
C18          O19   1.257       .  A
C18         C589   1.439       .  S
C20          O22   1.260       .  A
C20          O26   1.257       .  A
C20         C587   1.439       .  S
C24         C595   1.442       .  S
In27         O29   2.251       .  S
In27         O30   2.256       .  S
In27         O38   2.260       .  S
In27         O32   2.241       .  S
In27         O34   2.254       .  S
In27         O35   2.272       .  S
In27         O36   2.237       .  S
In27         O39   2.232       .  S
C28          O34   1.261       .  A
C28          O36   1.258       .  A
C28         C584   1.433       .  S
O29          C37   1.258       .  A
O30          C37   1.259       .  A
C31          O38   1.261       .  A
C31          O32   1.259       .  A
C31         C590   1.439       .  S
C33          O35   1.263       .  A
C33          O39   1.258       .  A
C33         C586   1.441       .  S
C37         C581   1.438       .  S
In40         O42   2.232       .  S
In40         O43   2.272       .  S
In40         O51   2.260       .  S
In40         O45   2.238       .  S
In40         O47   2.253       .  S
In40         O48   2.255       .  S
In40         O49   2.236       .  S
In40         O52   2.250       .  S
C41          O47   1.260       .  A
C41          O49   1.258       .  A
C41         C580   1.432       .  S
O42          C50   1.258       .  A
O43          C50   1.263       .  A
C44          O51   1.262       .  A
C44          O45   1.259       .  A
C44         C598   1.439       .  S
C46          O48   1.259       .  A
C46          O52   1.258       .  A
C46         C578   1.437       .  S
C50         C585   1.441       .  S
In53         O55   2.256       .  S
In53         O56   2.252       .  S
In53         O64   2.260       .  S
In53         O58   2.235       .  S
In53         O60   2.251       .  S
In53         O61   2.268       .  S
In53         O62   2.237       .  S
In53         O65   2.237       .  S
C54          O60   1.261       .  A
C54          O62   1.259       .  A
C54         C571   1.434       .  S
O55          C63   1.259       .  A
O56          C63   1.260       .  A
C57          O64   1.260       .  A
C57          O58   1.258       .  A
C57         C576   1.435       .  S
C59          O61   1.262       .  A
C59          O65   1.258       .  A
C59         C574   1.439       .  S
C63         C569   1.440       .  S
In66         O68   2.234       .  S
In66         O69   2.268       .  S
In66         O77   2.264       .  S
In66         O71   2.234       .  S
In66         O73   2.245       .  S
In66         O74   2.258       .  S
In66         O75   2.236       .  S
In66         O78   2.251       .  S
C67          O73   1.261       .  A
C67          O75   1.260       .  A
C67         C583   1.433       .  S
O68          C76   1.257       .  A
O69          C76   1.262       .  A
C70          O77   1.260       .  A
C70          O71   1.257       .  A
C70         C575   1.435       .  S
C72          O74   1.260       .  A
C72          O78   1.258       .  A
C72         C565   1.439       .  S
C76         C567   1.438       .  S
In79         O81   2.237       .  S
In79         O82   2.272       .  S
In79         O90   2.262       .  S
In79         O84   2.234       .  S
In79         O86   2.250       .  S
In79         O87   2.252       .  S
In79         O88   2.238       .  S
In79         O91   2.255       .  S
C80          O86   1.260       .  A
C80          O88   1.259       .  A
C80         C562   1.434       .  S
O81          C89   1.257       .  A
O82          C89   1.262       .  A
C83          O90   1.261       .  A
C83          O84   1.258       .  A
C83         C563   1.435       .  S
C85          O87   1.260       .  A
C85          O91   1.259       .  A
C85         C559   1.440       .  S
C89         C573   1.440       .  S
In92         O94   2.252       .  S
In92         O95   2.258       .  S
In92        O103   2.263       .  S
In92         O97   2.237       .  S
In92         O99   2.245       .  S
In92        O100   2.268       .  S
In92        O101   2.234       .  S
In92        O104   2.235       .  S
C93          O99   1.261       .  A
C93         O101   1.260       .  A
C93         C579   1.432       .  S
O94         C102   1.257       .  A
O95         C102   1.260       .  A
C96         O103   1.260       .  A
C96          O97   1.257       .  A
C96         C564   1.435       .  S
C98         O100   1.262       .  A
C98         O104   1.257       .  A
C98         C568   1.438       .  S
C102        C557   1.439       .  S
In105       O107   2.257       .  S
In105       O108   2.260       .  S
In105       O116   2.270       .  S
In105       O110   2.234       .  S
In105       O112   2.251       .  S
In105       O113   2.274       .  S
In105       O114   2.237       .  S
In105       O117   2.233       .  S
C106        O112   1.260       .  A
C106        O114   1.258       .  A
C106        C592   1.433       .  S
O107        C115   1.258       .  A
O108        C115   1.259       .  A
C109        O116   1.262       .  A
C109        O110   1.257       .  A
C109        C555   1.439       .  S
C111        O113   1.263       .  A
C111        O117   1.257       .  A
C111        C553   1.440       .  S
C115        C551   1.441       .  S
In118       O120   2.229       .  S
In118       O121   2.272       .  S
In118       O129   2.266       .  S
In118       O123   2.238       .  S
In118       O125   2.251       .  S
In118       O126   2.260       .  S
In118       O127   2.238       .  S
In118       O130   2.247       .  S
C119        O125   1.261       .  A
C119        O127   1.258       .  A
C119        C572   1.434       .  S
O120        C128   1.258       .  A
O121        C128   1.264       .  A
C122        O129   1.262       .  A
C122        O123   1.258       .  A
C122        C556   1.439       .  S
C124        O126   1.260       .  A
C124        O130   1.258       .  A
C124        C547   1.438       .  S
C128        C550   1.440       .  S
In131       O133   2.235       .  S
In131       O134   2.275       .  S
In131       O142   2.271       .  S
In131       O136   2.234       .  S
In131       O138   2.251       .  S
In131       O139   2.260       .  S
In131       O140   2.237       .  S
In131       O143   2.256       .  S
C132        O138   1.260       .  A
C132        O140   1.258       .  A
C132        C599   1.433       .  S
O133        C141   1.257       .  A
O134        C141   1.262       .  A
C135        O142   1.262       .  A
C135        O136   1.257       .  A
C135        C545   1.439       .  S
C137        O139   1.260       .  A
C137        O143   1.258       .  A
C137        C544   1.441       .  S
C141        C554   1.441       .  S
In144       O146   2.247       .  S
In144       O147   2.259       .  S
In144       O155   2.266       .  S
In144       O149   2.237       .  S
In144       O151   2.252       .  S
In144       O152   2.273       .  S
In144       O153   2.236       .  S
In144       O156   2.229       .  S
C145        O151   1.261       .  A
C145        O153   1.258       .  A
C145        C561   1.433       .  S
O146        C154   1.258       .  A
O147        C154   1.260       .  A
C148        O155   1.262       .  A
C148        O149   1.259       .  A
C148        C546   1.440       .  S
C150        O152   1.264       .  A
C150        O156   1.258       .  A
C150        C549   1.440       .  S
C154        C542   1.438       .  S
In157       O159   2.250       .  S
In157       O160   2.254       .  S
In157       O168   2.263       .  S
In157       O162   2.242       .  S
In157       O164   2.258       .  S
In157       O165   2.274       .  S
In157       O166   2.236       .  S
In157       O169   2.233       .  S
C158        O164   1.261       .  A
C158        O166   1.258       .  A
C158        C536   1.434       .  S
O159        C167   1.258       .  A
O160        C167   1.259       .  A
C161        O168   1.261       .  A
C161        O162   1.259       .  A
C161        C539   1.440       .  S
C163        O165   1.263       .  A
C163        O169   1.258       .  A
C163        C537   1.441       .  S
C167        C533   1.437       .  S
In170       O172   2.232       .  S
In170       O173   2.274       .  S
In170       O181   2.271       .  S
In170       O175   2.233       .  S
In170       O177   2.247       .  S
In170       O178   2.262       .  S
In170       O179   2.242       .  S
In170       O182   2.250       .  S
C171        O177   1.260       .  A
C171        O179   1.259       .  A
C171        C532   1.434       .  S
O172        C180   1.257       .  A
O173        C180   1.263       .  A
C174        O181   1.262       .  A
C174        O175   1.257       .  A
C174        C540   1.439       .  S
C176        O178   1.260       .  A
C176        O182   1.257       .  A
C176        C528   1.439       .  S
C180        C530   1.440       .  S
In183       O185   2.231       .  S
In183       O186   2.275       .  S
In183       O194   2.261       .  S
In183       O188   2.239       .  S
In183       O190   2.257       .  S
In183       O191   2.253       .  S
In183       O192   2.236       .  S
In183       O195   2.250       .  S
C184        O190   1.261       .  A
C184        O192   1.258       .  A
C184        C523   1.434       .  S
O185        C193   1.258       .  A
O186        C193   1.263       .  A
C187        O194   1.261       .  A
C187        O188   1.259       .  A
C187        C525   1.438       .  S
C189        O191   1.259       .  A
C189        O195   1.258       .  A
C189        C522   1.437       .  S
C193        C538   1.441       .  S
In196       O198   2.250       .  S
In196       O199   2.261       .  S
In196       O207   2.269       .  S
In196       O201   2.233       .  S
In196       O203   2.247       .  S
In196       O204   2.274       .  S
In196       O205   2.241       .  S
In196       O208   2.234       .  S
C197        O203   1.260       .  A
C197        O205   1.259       .  A
C197        C520   1.434       .  S
O198        C206   1.257       .  A
O199        C206   1.260       .  A
C200        O207   1.262       .  A
C200        O201   1.257       .  A
C200        C526   1.438       .  S
C202        O204   1.263       .  A
C202        O208   1.257       .  A
C202        C529   1.440       .  S
C206        C518   1.439       .  S
In209       O211   2.254       .  S
In209       O212   2.260       .  S
In209       O220   2.266       .  S
In209       O214   2.237       .  S
In209       O216   2.246       .  S
In209       O217   2.271       .  S
In209       O218   2.239       .  S
In209       O221   2.236       .  S
C210        O216   1.260       .  A
C210        O218   1.260       .  A
C210        C524   1.434       .  S
O211        C219   1.257       .  A
O212        C219   1.260       .  A
C213        O220   1.260       .  A
C213        O214   1.257       .  A
C213        C516   1.436       .  S
C215        O217   1.262       .  A
C215        O221   1.257       .  A
C215        C513   1.439       .  S
C219        C511   1.440       .  S
In222       O224   2.238       .  S
In222       O225   2.269       .  S
In222       O233   2.265       .  S
In222       O227   2.234       .  S
In222       O229   2.249       .  S
In222       O230   2.255       .  S
In222       O231   2.239       .  S
In222       O234   2.256       .  S
C223        O229   1.259       .  A
C223        O231   1.259       .  A
C223        C510   1.432       .  S
O224        C232   1.257       .  A
O225        C232   1.262       .  A
C226        O233   1.261       .  A
C226        O227   1.257       .  A
C226        C515   1.436       .  S
C228        O230   1.259       .  A
C228        O234   1.258       .  A
C228        C506   1.440       .  S
C232        C507   1.440       .  S
In235       O237   2.235       .  S
In235       O238   2.272       .  S
In235       O246   2.267       .  S
In235       O240   2.235       .  S
In235       O242   2.246       .  S
In235       O243   2.260       .  S
In235       O244   2.240       .  S
In235       O247   2.254       .  S
C236        O242   1.260       .  A
C236        O244   1.260       .  A
C236        C535   1.434       .  S
O237        C245   1.257       .  A
O238        C245   1.262       .  A
C239        O246   1.260       .  A
C239        O240   1.257       .  A
C239        C503   1.436       .  S
C241        O243   1.260       .  A
C241        O247   1.258       .  A
C241        C502   1.440       .  S
C245        C514   1.439       .  S
In248       O250   2.257       .  S
In248       O251   2.255       .  S
In248       O259   2.263       .  S
In248       O253   2.235       .  S
In248       O255   2.249       .  S
In248       O256   2.268       .  S
In248       O257   2.238       .  S
In248       O260   2.237       .  S
C249        O255   1.260       .  A
C249        O257   1.259       .  A
C249        C500   1.432       .  S
O250        C258   1.258       .  A
O251        C258   1.259       .  A
C252        O259   1.261       .  A
C252        O253   1.258       .  A
C252        C504   1.436       .  S
C254        O256   1.262       .  A
C254        O260   1.258       .  A
C254        C508   1.440       .  S
C258        C497   1.440       .  S
In261       O263   2.256       .  S
In261       O264   2.262       .  S
In261       O272   2.271       .  S
In261       O266   2.235       .  S
In261       O268   2.252       .  S
In261       O269   2.275       .  S
In261       O270   2.241       .  S
In261       O273   2.233       .  S
C262        O268   1.260       .  A
C262        O270   1.259       .  A
C262        C531   1.434       .  S
O263        C271   1.258       .  A
O264        C271   1.260       .  A
C265        O272   1.262       .  A
C265        O266   1.257       .  A
C265        C495   1.440       .  S
C267        O269   1.263       .  A
C267        O273   1.257       .  A
C267        C493   1.440       .  S
C271        C492   1.441       .  S
In274       O276   2.234       .  S
In274       O277   2.275       .  S
In274       O285   2.271       .  S
In274       O279   2.234       .  S
In274       O281   2.251       .  S
In274       O282   2.261       .  S
In274       O283   2.240       .  S
In274       O286   2.255       .  S
C275        O281   1.260       .  A
C275        O283   1.259       .  A
C275        C519   1.434       .  S
O276        C284   1.257       .  A
O277        C284   1.263       .  A
C278        O285   1.262       .  A
C278        O279   1.257       .  A
C278        C489   1.440       .  S
C280        O282   1.260       .  A
C280        O286   1.258       .  A
C280        C487   1.441       .  S
C284        C494   1.441       .  S
In287       O289   2.247       .  S
In287       O290   2.259       .  S
In287       O298   2.267       .  S
In287       O292   2.240       .  S
In287       O294   2.252       .  S
In287       O295   2.272       .  S
In287       O296   2.233       .  S
In287       O299   2.230       .  S
C288        O294   1.261       .  A
C288        O296   1.258       .  A
C288        C509   1.432       .  S
O289        C297   1.258       .  A
O290        C297   1.260       .  A
C291        O298   1.262       .  A
C291        O292   1.258       .  A
C291        C490   1.441       .  S
C293        O295   1.263       .  A
C293        O299   1.258       .  A
C293        C485   1.439       .  S
C297        C484   1.439       .  S
In300       O302   2.228       .  S
In300       O303   2.271       .  S
In300       O311   2.266       .  S
In300       O305   2.241       .  S
In300       O307   2.253       .  S
In300       O308   2.260       .  S
In300       O309   2.236       .  S
In300       O312   2.246       .  S
C301        O307   1.261       .  A
C301        O309   1.258       .  A
C301        C499   1.432       .  S
O302        C310   1.258       .  A
O303        C310   1.263       .  A
C304        O311   1.261       .  A
C304        O305   1.258       .  A
C304        C496   1.440       .  S
C306        O308   1.260       .  A
C306        O312   1.258       .  A
C306        C481   1.438       .  S
C310        C486   1.439       .  S
C313        C319   1.538       .  S
C313        C317   1.545       .  S
C313        C914   1.539   1_554  S
C313        C479   1.483       .  S
C314        C913   1.539       .  S
C314        H321   1.087       .  S
C314        C315   1.365       .  D
C315        C916   1.531       .  S
C315        C548   1.445       .  S
C316        C320   1.531       .  S
C316        C318   1.534       .  S
C316        C915   1.531   1_554  S
C316        H322   1.112       .  S
C317        H323   1.086       .  S
C317        C318   1.371       .  D
C318        C477   1.446   1_565  S
C319        H324   1.087       .  S
C319        C320   1.365       .  D
C320        C541   1.445       .  S
C325        C331   1.535       .  S
C325        C329   1.538       .  S
C325        C926   1.535   1_554  S
C325        C476   1.471       .  S
C326        C925   1.535       .  S
C326        H333   1.087       .  S
C326        C327   1.361       .  D
C327        C928   1.539       .  S
C327        C570   1.446       .  S
C328        C332   1.539       .  S
C328        C330   1.547       .  S
C328        C927   1.539   1_554  S
C328        H334   1.111       .  S
C329        H335   1.086       .  S
C329        C330   1.371       .  D
C330        C480   1.455       .  S
C331        H336   1.087       .  S
C331        C332   1.362       .  D
C332        C560   1.446       .  S
C337        C338   1.537       .  S
C337        C341   1.544       .  S
C337        C943   1.537   1_554  S
C337        C474   1.479       .  S
C338        H345   1.087       .  S
C338        C339   1.364       .  D
C339        C340   1.531       .  S
C339        C521   1.443       .  S
C340        C342   1.536       .  S
C340        C944   1.532   1_554  S
C340        H346   1.112       .  S
C341        H347   1.086       .  S
C341        C342   1.370       .  D
C342        C471   1.445   1_655  S
C343        C937   1.537       .  S
C343        H348   1.087       .  S
C343        C344   1.364       .  D
C344        C940   1.532       .  S
C344        C534   1.443       .  S
C349        C350   1.534       .  S
C349        C353   1.537       .  S
C349        C955   1.534   1_554  S
C349        C475   1.470       .  S
C350        H357   1.087       .  S
C350        C351   1.360       .  D
C351        C352   1.539       .  S
C351        C512   1.446       .  S
C352        C354   1.547       .  S
C352        C956   1.539   1_554  S
C352        H358   1.112       .  S
C353        H359   1.086       .  S
C353        C354   1.370       .  D
C354        C473   1.452       .  S
C355        C949   1.534       .  S
C355        H360   1.087       .  S
C355        C356   1.361       .  D
C356        C952   1.539       .  S
C356        C501   1.446       .  S
C361        C367   1.534       .  S
C361        C365   1.537       .  S
C361        C962   1.534   1_554  S
C361        C467   1.474       .  S
C362        C961   1.534       .  S
C362        H369   1.087       .  S
C362        C363   1.362       .  D
C363        C964   1.540       .  S
C363        C552   1.446       .  S
C364        C368   1.541       .  S
C364        C366   1.548       .  S
C364        C963   1.540   1_554  S
C364        H370   1.111       .  S
C365        H371   1.087       .  S
C365        C366   1.370       .  D
C366        C469   1.457       .  S
C367        H372   1.088       .  S
C367        C368   1.362       .  D
C368        C543   1.447       .  S
C373        C374   1.533       .  S
C373        C377   1.537       .  S
C373        C979   1.533   1_554  S
C373        C472   1.472       .  S
C374        H381   1.088       .  S
C374        C375   1.361       .  D
C375        C376   1.541       .  S
C375        C594   1.445       .  S
C376        C378   1.549       .  S
C376        C980   1.541   1_554  S
C376        H382   1.111       .  S
C377        H383   1.087       .  S
C377        C378   1.370       .  D
C378        C470   1.457       .  S
C379        C973   1.533       .  S
C379        H384   1.088       .  S
C379        C380   1.360       .  D
C380        C976   1.541       .  S
C380        C588   1.445       .  S
C385        C386   1.533       .  S
C385        C389   1.536       .  S
C385        C991   1.533   1_554  S
C385        C463   1.473   1_655  S
C386        H393   1.088       .  S
C386        C387   1.361       .  D
C387        C388   1.542       .  S
C387        C517   1.446       .  S
C388        C390   1.549       .  S
C388        C992   1.542   1_554  S
C388        H394   1.111       .  S
C389        H395   1.087       .  S
C389        C390   1.370       .  D
C390        C465   1.458       .  S
C391        C985   1.533       .  S
C391        H396   1.088       .  S
C391        C392   1.361       .  D
C392        C988   1.542       .  S
C392        C527   1.445       .  S
C397        C403   1.534       .  S
C397        C401   1.538       .  S
C397        C998   1.534   1_554  S
C397        C478   1.474       .  S
C398        C997   1.534       .  S
C398        H405   1.088       .  S
C398        C399   1.362       .  D
C399       C1000   1.541       .  S
C399        C491   1.446       .  S
C400        C404   1.541       .  S
C400        C402   1.549       .  S
C400        C999   1.541   1_554  S
C400        H406   1.111       .  S
C401        H407   1.087       .  S
C401        C402   1.371       .  D
C402        C466   1.459       .  S
C403        H408   1.088       .  S
C403        C404   1.361       .  D
C404        C488   1.447       .  S
C409        C415   1.535       .  S
C409        C413   1.539       .  S
C409       C1010   1.535   1_554  S
C409        C459   1.471       .  S
C410       C1009   1.535       .  S
C410        H417   1.087       .  S
C410        C411   1.361       .  D
C411       C1012   1.539       .  S
C411        C498   1.446       .  S
C412        C416   1.539       .  S
C412        C414   1.547       .  S
C412       C1011   1.539   1_554  S
C412        H418   1.111       .  S
C413        H419   1.086       .  S
C413        C414   1.371       .  D
C414        C462   1.456       .  S
C415        H420   1.087       .  S
C415        C416   1.361       .  D
C416        C505   1.446       .  S
C421        C427   1.539       .  S
C421        C425   1.545       .  S
C421       C1022   1.539   1_554  S
C421        C461   1.484       .  S
C422       C1021   1.539       .  S
C422        H429   1.087       .  S
C422        C423   1.365       .  D
C423       C1024   1.531       .  S
C423        C482   1.445       .  S
C424        C428   1.531       .  S
C424        C426   1.534       .  S
C424       C1023   1.531   1_554  S
C424        H430   1.112       .  S
C425        H431   1.086       .  S
C425        C426   1.371       .  D
C426        C468   1.446       .  S
C427        H432   1.087       .  S
C427        C428   1.365       .  D
C428        C483   1.446       .  S
C433        C434   1.534       .  S
C433        C437   1.538       .  S
C433       C1039   1.534   1_554  S
C433        C460   1.471       .  S
C434        H441   1.087       .  S
C434        C435   1.361       .  D
C435        C436   1.540       .  S
C435        C558   1.446       .  S
C436        C438   1.547       .  S
C436       C1040   1.540   1_554  S
C436        H442   1.112       .  S
C437        H443   1.085       .  S
C437        C438   1.371       .  D
C438        C458   1.454       .  S
C439       C1033   1.534       .  S
C439        H444   1.087       .  S
C439        C440   1.361       .  D
C440       C1036   1.540       .  S
C440        C566   1.446       .  S
C445        C446   1.537       .  S
C445        C449   1.545       .  S
C445       C1051   1.537   1_554  S
C445        C457   1.481       .  S
C446        H453   1.087       .  S
C446        C447   1.364       .  D
C447        C448   1.531       .  S
C447        C577   1.444       .  S
C448        C450   1.535       .  S
C448       C1052   1.531   1_554  S
C448        H454   1.112       .  S
C449        H455   1.086       .  S
C449        C450   1.371       .  D
C450        C464   1.445       .  S
C451       C1045   1.537       .  S
C451        H456   1.087       .  S
C451        C452   1.364       .  D
C452       C1048   1.531       .  S
C452        C582   1.444       .  S
C457        C458   1.214       .  T
C459        C460   1.208       .  T
C461        C462   1.215       .  T
C463        C464   1.209       .  T
C465        C466   1.216       .  T
C467        C468   1.209   1_565  T
C469        C470   1.215       .  T
C471        C472   1.209       .  T
C473        C474   1.212       .  T
C475        C476   1.208       .  T
C477        C478   1.209       .  T
C479        C480   1.214       .  T
C481        C482   1.208       .  T
C483        C484   1.208       .  T
C485        C486   1.208       .  T
C487        C488   1.209       .  T
C489        C490   1.209       .  T
C491        C492   1.209       .  T
C493        C494   1.209       .  T
C495        C496   1.209       .  T
C497        C498   1.209       .  T
C499        C500   1.204       .  T
C501        C502   1.209       .  T
C503        C504   1.206       .  T
C505        C506   1.208       .  T
C507        C508   1.208       .  T
C509        C510   1.204       .  T
C511        C512   1.209       .  T
C513        C514   1.208       .  T
C515        C516   1.206       .  T
C517        C518   1.208       .  T
C519        C520   1.205       .  T
C521        C522   1.207       .  T
C523        C524   1.205       .  T
C525        C526   1.208       .  T
C527        C528   1.208       .  T
C529        C530   1.209       .  T
C531        C532   1.205       .  T
C533        C534   1.207       .  T
C535        C536   1.205       .  T
C537        C538   1.209       .  T
C539        C540   1.208       .  T
C541        C542   1.208       .  T
C543        C544   1.209       .  T
C545        C546   1.208       .  T
C547        C548   1.208       .  T
C549        C550   1.209       .  T
C551        C552   1.209       .  T
C553        C554   1.209       .  T
C555        C556   1.208       .  T
C557        C558   1.208       .  T
C559        C560   1.208       .  T
C561        C562   1.205       .  T
C563        C564   1.206       .  T
C565        C566   1.208       .  T
C567        C568   1.207       .  T
C569        C570   1.208       .  T
C571        C572   1.205       .  T
C573        C574   1.208       .  T
C575        C576   1.205       .  T
C577        C578   1.207       .  T
C579        C580   1.204       .  T
C581        C582   1.207       .  T
C583        C584   1.204       .  T
C585        C586   1.209       .  T
C587        C588   1.208       .  T
C589        C590   1.208       .  T
C591        C592   1.204       .  T
C593        C594   1.208       .  T
C595        C596   1.210       .  T
C597        C598   1.208       .  T
C599        C600   1.204       .  T
In601       O603   2.252       .  S
In601       O604   2.260       .  S
In601       O612   2.268       .  S
In601       O606   2.233       .  S
In601       O608   2.245       .  S
In601       O609   2.275       .  S
In601       O610   2.240       .  S
In601       O613   2.235       .  S
C602        O608   1.259       .  A
C602        O610   1.259       .  A
C602       C1200   1.433       .  S
O603        C611   1.257       .  A
O604        C611   1.260       .  A
C605        O612   1.262       .  A
C605        O606   1.257       .  A
C605       C1197   1.438       .  S
C607        O609   1.263       .  A
C607        O613   1.258       .  A
C607       C1196   1.442       .  S
C611       C1193   1.439       .  S
In614       O616   2.236       .  S
In614       O617   2.276       .  S
In614       O625   2.269       .  S
In614       O619   2.232       .  S
In614       O621   2.245       .  S
In614       O622   2.261       .  S
In614       O623   2.240       .  S
In614       O626   2.252       .  S
C615        O621   1.259       .  A
C615        O623   1.259       .  A
C615       C1191   1.432       .  S
O616        C624   1.257       .  A
O617        C624   1.263       .  A
C618        O625   1.263       .  A
C618        O619   1.257       .  A
C618       C1189   1.439       .  S
C620        O622   1.260       .  A
C620        O626   1.257       .  A
C620       C1187   1.439       .  S
C624       C1195   1.442       .  S
In627       O629   2.251       .  S
In627       O630   2.256       .  S
In627       O638   2.260       .  S
In627       O632   2.241       .  S
In627       O634   2.254       .  S
In627       O635   2.272       .  S
In627       O636   2.237       .  S
In627       O639   2.232       .  S
C628        O634   1.261       .  A
C628        O636   1.258       .  A
C628       C1184   1.433       .  S
O629        C637   1.258       .  A
O630        C637   1.259       .  A
C631        O638   1.261       .  A
C631        O632   1.259       .  A
C631       C1190   1.439       .  S
C633        O635   1.263       .  A
C633        O639   1.258       .  A
C633       C1186   1.441       .  S
C637       C1181   1.438       .  S
In640       O642   2.232       .  S
In640       O643   2.272       .  S
In640       O651   2.260       .  S
In640       O645   2.238       .  S
In640       O647   2.253       .  S
In640       O648   2.255       .  S
In640       O649   2.236       .  S
In640       O652   2.250       .  S
C641        O647   1.260       .  A
C641        O649   1.258       .  A
C641       C1180   1.432       .  S
O642        C650   1.258       .  A
O643        C650   1.263       .  A
C644        O651   1.262       .  A
C644        O645   1.259       .  A
C644       C1198   1.439       .  S
C646        O648   1.259       .  A
C646        O652   1.258       .  A
C646       C1178   1.437       .  S
C650       C1185   1.441       .  S
In653       O655   2.256       .  S
In653       O656   2.252       .  S
In653       O664   2.260       .  S
In653       O658   2.235       .  S
In653       O660   2.251       .  S
In653       O661   2.268       .  S
In653       O662   2.237       .  S
In653       O665   2.237       .  S
C654        O660   1.261       .  A
C654        O662   1.259       .  A
C654       C1171   1.434       .  S
O655        C663   1.259       .  A
O656        C663   1.260       .  A
C657        O664   1.260       .  A
C657        O658   1.258       .  A
C657       C1176   1.435       .  S
C659        O661   1.262       .  A
C659        O665   1.258       .  A
C659       C1174   1.439       .  S
C663       C1169   1.440       .  S
In666       O668   2.234       .  S
In666       O669   2.268       .  S
In666       O677   2.264       .  S
In666       O671   2.234       .  S
In666       O673   2.245       .  S
In666       O674   2.258       .  S
In666       O675   2.236       .  S
In666       O678   2.251       .  S
C667        O673   1.261       .  A
C667        O675   1.260       .  A
C667       C1183   1.433       .  S
O668        C676   1.257       .  A
O669        C676   1.262       .  A
C670        O677   1.260       .  A
C670        O671   1.257       .  A
C670       C1175   1.435       .  S
C672        O674   1.260       .  A
C672        O678   1.258       .  A
C672       C1165   1.439       .  S
C676       C1167   1.438       .  S
In679       O681   2.237       .  S
In679       O682   2.272       .  S
In679       O690   2.262       .  S
In679       O684   2.234       .  S
In679       O686   2.250       .  S
In679       O687   2.252       .  S
In679       O688   2.238       .  S
In679       O691   2.255       .  S
C680        O686   1.260       .  A
C680        O688   1.259       .  A
C680       C1162   1.434       .  S
O681        C689   1.257       .  A
O682        C689   1.262       .  A
C683        O690   1.261       .  A
C683        O684   1.258       .  A
C683       C1163   1.435       .  S
C685        O687   1.260       .  A
C685        O691   1.259       .  A
C685       C1159   1.440       .  S
C689       C1173   1.440       .  S
In692       O694   2.252       .  S
In692       O695   2.258       .  S
In692       O703   2.263       .  S
In692       O697   2.237       .  S
In692       O699   2.245       .  S
In692       O700   2.268       .  S
In692       O701   2.234       .  S
In692       O704   2.235       .  S
C693        O699   1.261       .  A
C693        O701   1.260       .  A
C693       C1179   1.432       .  S
O694        C702   1.257       .  A
O695        C702   1.260       .  A
C696        O703   1.260       .  A
C696        O697   1.257       .  A
C696       C1164   1.435       .  S
C698        O700   1.262       .  A
C698        O704   1.257       .  A
C698       C1168   1.438       .  S
C702       C1157   1.439       .  S
In705       O707   2.257       .  S
In705       O708   2.260       .  S
In705       O716   2.270       .  S
In705       O710   2.234       .  S
In705       O712   2.251       .  S
In705       O713   2.274       .  S
In705       O714   2.237       .  S
In705       O717   2.233       .  S
C706        O712   1.260       .  A
C706        O714   1.258       .  A
C706       C1192   1.433       .  S
O707        C715   1.258       .  A
O708        C715   1.259       .  A
C709        O716   1.262       .  A
C709        O710   1.257       .  A
C709       C1155   1.439       .  S
C711        O713   1.263       .  A
C711        O717   1.257       .  A
C711       C1153   1.440       .  S
C715       C1151   1.441       .  S
In718       O720   2.229       .  S
In718       O721   2.272       .  S
In718       O729   2.266       .  S
In718       O723   2.238       .  S
In718       O725   2.251       .  S
In718       O726   2.260       .  S
In718       O727   2.238       .  S
In718       O730   2.247       .  S
C719        O725   1.261       .  A
C719        O727   1.258       .  A
C719       C1172   1.434       .  S
O720        C728   1.258       .  A
O721        C728   1.264       .  A
C722        O729   1.262       .  A
C722        O723   1.258       .  A
C722       C1156   1.439       .  S
C724        O726   1.260       .  A
C724        O730   1.258       .  A
C724       C1147   1.438       .  S
C728       C1150   1.440       .  S
In731       O733   2.235       .  S
In731       O734   2.275       .  S
In731       O742   2.271       .  S
In731       O736   2.234       .  S
In731       O738   2.251       .  S
In731       O739   2.260       .  S
In731       O740   2.237       .  S
In731       O743   2.256       .  S
C732        O738   1.260       .  A
C732        O740   1.258       .  A
C732       C1199   1.433       .  S
O733        C741   1.257       .  A
O734        C741   1.262       .  A
C735        O742   1.262       .  A
C735        O736   1.257       .  A
C735       C1145   1.439       .  S
C737        O739   1.260       .  A
C737        O743   1.258       .  A
C737       C1144   1.441       .  S
C741       C1154   1.441       .  S
In744       O746   2.247       .  S
In744       O747   2.259       .  S
In744       O755   2.266       .  S
In744       O749   2.237       .  S
In744       O751   2.252       .  S
In744       O752   2.273       .  S
In744       O753   2.236       .  S
In744       O756   2.229       .  S
C745        O751   1.261       .  A
C745        O753   1.258       .  A
C745       C1161   1.433       .  S
O746        C754   1.258       .  A
O747        C754   1.260       .  A
C748        O755   1.262       .  A
C748        O749   1.259       .  A
C748       C1146   1.440       .  S
C750        O752   1.264       .  A
C750        O756   1.258       .  A
C750       C1149   1.440       .  S
C754       C1142   1.438       .  S
In757       O759   2.250       .  S
In757       O760   2.254       .  S
In757       O768   2.263       .  S
In757       O762   2.242       .  S
In757       O764   2.258       .  S
In757       O765   2.274       .  S
In757       O766   2.236       .  S
In757       O769   2.233       .  S
C758        O764   1.261       .  A
C758        O766   1.258       .  A
C758       C1136   1.434       .  S
O759        C767   1.258       .  A
O760        C767   1.259       .  A
C761        O768   1.261       .  A
C761        O762   1.259       .  A
C761       C1139   1.440       .  S
C763        O765   1.263       .  A
C763        O769   1.258       .  A
C763       C1137   1.441       .  S
C767       C1133   1.437       .  S
In770       O772   2.232       .  S
In770       O773   2.274       .  S
In770       O781   2.271       .  S
In770       O775   2.233       .  S
In770       O777   2.247       .  S
In770       O778   2.262       .  S
In770       O779   2.242       .  S
In770       O782   2.250       .  S
C771        O777   1.260       .  A
C771        O779   1.259       .  A
C771       C1132   1.434       .  S
O772        C780   1.257       .  A
O773        C780   1.263       .  A
C774        O781   1.262       .  A
C774        O775   1.257       .  A
C774       C1140   1.439       .  S
C776        O778   1.260       .  A
C776        O782   1.257       .  A
C776       C1128   1.439       .  S
C780       C1130   1.440       .  S
In783       O785   2.231       .  S
In783       O786   2.275       .  S
In783       O794   2.261       .  S
In783       O788   2.239       .  S
In783       O790   2.257       .  S
In783       O791   2.253       .  S
In783       O792   2.236       .  S
In783       O795   2.250       .  S
C784        O790   1.261       .  A
C784        O792   1.258       .  A
C784       C1123   1.434       .  S
O785        C793   1.258       .  A
O786        C793   1.263       .  A
C787        O794   1.261       .  A
C787        O788   1.259       .  A
C787       C1125   1.438       .  S
C789        O791   1.259       .  A
C789        O795   1.258       .  A
C789       C1122   1.437       .  S
C793       C1138   1.441       .  S
In796       O798   2.250       .  S
In796       O799   2.261       .  S
In796       O807   2.269       .  S
In796       O801   2.233       .  S
In796       O803   2.247       .  S
In796       O804   2.274       .  S
In796       O805   2.241       .  S
In796       O808   2.234       .  S
C797        O803   1.260       .  A
C797        O805   1.259       .  A
C797       C1120   1.434       .  S
O798        C806   1.257       .  A
O799        C806   1.260       .  A
C800        O807   1.262       .  A
C800        O801   1.257       .  A
C800       C1126   1.438       .  S
C802        O804   1.263       .  A
C802        O808   1.257       .  A
C802       C1129   1.440       .  S
C806       C1118   1.439       .  S
In809       O811   2.254       .  S
In809       O812   2.260       .  S
In809       O820   2.266       .  S
In809       O814   2.237       .  S
In809       O816   2.246       .  S
In809       O817   2.271       .  S
In809       O818   2.239       .  S
In809       O821   2.236       .  S
C810        O816   1.260       .  A
C810        O818   1.260       .  A
C810       C1124   1.434       .  S
O811        C819   1.257       .  A
O812        C819   1.260       .  A
C813        O820   1.260       .  A
C813        O814   1.257       .  A
C813       C1116   1.436       .  S
C815        O817   1.262       .  A
C815        O821   1.257       .  A
C815       C1113   1.439       .  S
C819       C1111   1.440       .  S
In822       O824   2.238       .  S
In822       O825   2.269       .  S
In822       O833   2.265       .  S
In822       O827   2.234       .  S
In822       O829   2.249       .  S
In822       O830   2.255       .  S
In822       O831   2.239       .  S
In822       O834   2.256       .  S
C823        O829   1.259       .  A
C823        O831   1.259       .  A
C823       C1110   1.432       .  S
O824        C832   1.257       .  A
O825        C832   1.262       .  A
C826        O833   1.261       .  A
C826        O827   1.257       .  A
C826       C1115   1.436       .  S
C828        O830   1.259       .  A
C828        O834   1.258       .  A
C828       C1106   1.440       .  S
C832       C1107   1.440       .  S
In835       O837   2.235       .  S
In835       O838   2.272       .  S
In835       O846   2.267       .  S
In835       O840   2.235       .  S
In835       O842   2.246       .  S
In835       O843   2.260       .  S
In835       O844   2.240       .  S
In835       O847   2.254       .  S
C836        O842   1.260       .  A
C836        O844   1.260       .  A
C836       C1135   1.434       .  S
O837        C845   1.257       .  A
O838        C845   1.262       .  A
C839        O846   1.260       .  A
C839        O840   1.257       .  A
C839       C1103   1.436       .  S
C841        O843   1.260       .  A
C841        O847   1.258       .  A
C841       C1102   1.440       .  S
C845       C1114   1.439       .  S
In848       O850   2.257       .  S
In848       O851   2.255       .  S
In848       O859   2.263       .  S
In848       O853   2.235       .  S
In848       O855   2.249       .  S
In848       O856   2.268       .  S
In848       O857   2.238       .  S
In848       O860   2.237       .  S
C849        O855   1.260       .  A
C849        O857   1.259       .  A
C849       C1100   1.432       .  S
O850        C858   1.258       .  A
O851        C858   1.259       .  A
C852        O859   1.261       .  A
C852        O853   1.258       .  A
C852       C1104   1.436       .  S
C854        O856   1.262       .  A
C854        O860   1.258       .  A
C854       C1108   1.440       .  S
C858       C1097   1.440       .  S
In861       O863   2.256       .  S
In861       O864   2.262       .  S
In861       O872   2.271       .  S
In861       O866   2.235       .  S
In861       O868   2.252       .  S
In861       O869   2.275       .  S
In861       O870   2.241       .  S
In861       O873   2.233       .  S
C862        O868   1.260       .  A
C862        O870   1.259       .  A
C862       C1131   1.434       .  S
O863        C871   1.258       .  A
O864        C871   1.260       .  A
C865        O872   1.262       .  A
C865        O866   1.257       .  A
C865       C1095   1.440       .  S
C867        O869   1.263       .  A
C867        O873   1.257       .  A
C867       C1093   1.440       .  S
C871       C1092   1.441       .  S
In874       O876   2.234       .  S
In874       O877   2.275       .  S
In874       O885   2.271       .  S
In874       O879   2.234       .  S
In874       O881   2.251       .  S
In874       O882   2.261       .  S
In874       O883   2.240       .  S
In874       O886   2.255       .  S
C875        O881   1.260       .  A
C875        O883   1.259       .  A
C875       C1119   1.434       .  S
O876        C884   1.257       .  A
O877        C884   1.263       .  A
C878        O885   1.262       .  A
C878        O879   1.257       .  A
C878       C1089   1.440       .  S
C880        O882   1.260       .  A
C880        O886   1.258       .  A
C880       C1087   1.441       .  S
C884       C1094   1.441       .  S
In887       O889   2.247       .  S
In887       O890   2.259       .  S
In887       O898   2.267       .  S
In887       O892   2.240       .  S
In887       O894   2.252       .  S
In887       O895   2.272       .  S
In887       O896   2.233       .  S
In887       O899   2.230       .  S
C888        O894   1.261       .  A
C888        O896   1.258       .  A
C888       C1109   1.432       .  S
O889        C897   1.258       .  A
O890        C897   1.260       .  A
C891        O898   1.262       .  A
C891        O892   1.258       .  A
C891       C1090   1.441       .  S
C893        O895   1.263       .  A
C893        O899   1.258       .  A
C893       C1085   1.439       .  S
C897       C1084   1.439       .  S
In900       O902   2.228       .  S
In900       O903   2.271       .  S
In900       O911   2.266       .  S
In900       O905   2.241       .  S
In900       O907   2.253       .  S
In900       O908   2.260       .  S
In900       O909   2.236       .  S
In900       O912   2.246       .  S
C901        O907   1.261       .  A
C901        O909   1.258       .  A
C901       C1099   1.432       .  S
O902        C910   1.258       .  A
O903        C910   1.263       .  A
C904        O911   1.261       .  A
C904        O905   1.258       .  A
C904       C1096   1.440       .  S
C906        O908   1.260       .  A
C906        O912   1.258       .  A
C906       C1081   1.438       .  S
C910       C1086   1.439       .  S
C913        C919   1.538       .  S
C913        C917   1.545       .  S
C913       C1079   1.483       .  S
C914        H921   1.087       .  S
C914        C915   1.365       .  D
C915       C1148   1.445       .  S
C916        C920   1.531       .  S
C916        C918   1.534       .  S
C916        H922   1.112       .  S
C917        H923   1.086       .  S
C917        C918   1.371       .  D
C918       C1077   1.446   1_565  S
C919        H924   1.087       .  S
C919        C920   1.365       .  D
C920       C1141   1.445       .  S
C925        C931   1.535       .  S
C925        C929   1.538       .  S
C925       C1076   1.471       .  S
C926        H933   1.087       .  S
C926        C927   1.361       .  D
C927       C1170   1.446       .  S
C928        C932   1.539       .  S
C928        C930   1.547       .  S
C928        H934   1.111       .  S
C929        H935   1.086       .  S
C929        C930   1.371       .  D
C930       C1080   1.455       .  S
C931        H936   1.087       .  S
C931        C932   1.362       .  D
C932       C1160   1.446       .  S
C937        C938   1.537       .  S
C937        C941   1.544       .  S
C937       C1074   1.479       .  S
C938        H945   1.087       .  S
C938        C939   1.364       .  D
C939        C940   1.531       .  S
C939       C1121   1.443       .  S
C940        C942   1.536       .  S
C940        H946   1.112       .  S
C941        H947   1.086       .  S
C941        C942   1.370       .  D
C942       C1071   1.445   1_655  S
C943        H948   1.087       .  S
C943        C944   1.364       .  D
C944       C1134   1.443       .  S
C949        C950   1.534       .  S
C949        C953   1.537       .  S
C949       C1075   1.470       .  S
C950        H957   1.087       .  S
C950        C951   1.360       .  D
C951        C952   1.539       .  S
C951       C1112   1.446       .  S
C952        C954   1.547       .  S
C952        H958   1.112       .  S
C953        H959   1.086       .  S
C953        C954   1.370       .  D
C954       C1073   1.452       .  S
C955        H960   1.087       .  S
C955        C956   1.361       .  D
C956       C1101   1.446       .  S
C961        C967   1.534       .  S
C961        C965   1.537       .  S
C961       C1067   1.474       .  S
C962        H969   1.087       .  S
C962        C963   1.362       .  D
C963       C1152   1.446       .  S
C964        C968   1.541       .  S
C964        C966   1.548       .  S
C964        H970   1.111       .  S
C965        H971   1.087       .  S
C965        C966   1.370       .  D
C966       C1069   1.457       .  S
C967        H972   1.088       .  S
C967        C968   1.362       .  D
C968       C1143   1.447       .  S
C973        C974   1.533       .  S
C973        C977   1.537       .  S
C973       C1072   1.472       .  S
C974        H981   1.088       .  S
C974        C975   1.361       .  D
C975        C976   1.541       .  S
C975       C1194   1.445       .  S
C976        C978   1.549       .  S
C976        H982   1.111       .  S
C977        H983   1.087       .  S
C977        C978   1.370       .  D
C978       C1070   1.457       .  S
C979        H984   1.088       .  S
C979        C980   1.360       .  D
C980       C1188   1.445       .  S
C985        C986   1.533       .  S
C985        C989   1.536       .  S
C985       C1063   1.473   1_655  S
C986        H993   1.088       .  S
C986        C987   1.361       .  D
C987        C988   1.542       .  S
C987       C1117   1.446       .  S
C988        C990   1.549       .  S
C988        H994   1.111       .  S
C989        H995   1.087       .  S
C989        C990   1.370       .  D
C990       C1065   1.458       .  S
C991        H996   1.088       .  S
C991        C992   1.361       .  D
C992       C1127   1.445       .  S
C997       C1003   1.534       .  S
C997       C1001   1.538       .  S
C997       C1078   1.474       .  S
C998       H1005   1.088       .  S
C998        C999   1.362       .  D
C999       C1091   1.446       .  S
C1000      C1004   1.541       .  S
C1000      C1002   1.549       .  S
C1000      H1006   1.111       .  S
C1001      H1007   1.087       .  S
C1001      C1002   1.371       .  D
C1002      C1066   1.459       .  S
C1003      H1008   1.088       .  S
C1003      C1004   1.361       .  D
C1004      C1088   1.447       .  S
C1009      C1015   1.535       .  S
C1009      C1013   1.539       .  S
C1009      C1059   1.471       .  S
C1010      H1017   1.087       .  S
C1010      C1011   1.361       .  D
C1011      C1098   1.446       .  S
C1012      C1016   1.539       .  S
C1012      C1014   1.547       .  S
C1012      H1018   1.111       .  S
C1013      H1019   1.086       .  S
C1013      C1014   1.371       .  D
C1014      C1062   1.456       .  S
C1015      H1020   1.087       .  S
C1015      C1016   1.361       .  D
C1016      C1105   1.446       .  S
C1021      C1027   1.539       .  S
C1021      C1025   1.545       .  S
C1021      C1061   1.484       .  S
C1022      H1029   1.087       .  S
C1022      C1023   1.365       .  D
C1023      C1082   1.445       .  S
C1024      C1028   1.531       .  S
C1024      C1026   1.534       .  S
C1024      H1030   1.112       .  S
C1025      H1031   1.086       .  S
C1025      C1026   1.371       .  D
C1026      C1068   1.446       .  S
C1027      H1032   1.087       .  S
C1027      C1028   1.365       .  D
C1028      C1083   1.446       .  S
C1033      C1034   1.534       .  S
C1033      C1037   1.538       .  S
C1033      C1060   1.471       .  S
C1034      H1041   1.087       .  S
C1034      C1035   1.361       .  D
C1035      C1036   1.540       .  S
C1035      C1158   1.446       .  S
C1036      C1038   1.547       .  S
C1036      H1042   1.112       .  S
C1037      H1043   1.085       .  S
C1037      C1038   1.371       .  D
C1038      C1058   1.454       .  S
C1039      H1044   1.087       .  S
C1039      C1040   1.361       .  D
C1040      C1166   1.446       .  S
C1045      C1046   1.537       .  S
C1045      C1049   1.545       .  S
C1045      C1057   1.481       .  S
C1046      H1053   1.087       .  S
C1046      C1047   1.364       .  D
C1047      C1048   1.531       .  S
C1047      C1177   1.444       .  S
C1048      C1050   1.535       .  S
C1048      H1054   1.112       .  S
C1049      H1055   1.086       .  S
C1049      C1050   1.371       .  D
C1050      C1064   1.445       .  S
C1051      H1056   1.087       .  S
C1051      C1052   1.364       .  D
C1052      C1182   1.444       .  S
C1057      C1058   1.214       .  T
C1059      C1060   1.208       .  T
C1061      C1062   1.215       .  T
C1063      C1064   1.209       .  T
C1065      C1066   1.216       .  T
C1067      C1068   1.209   1_565  T
C1069      C1070   1.215       .  T
C1071      C1072   1.209       .  T
C1073      C1074   1.212       .  T
C1075      C1076   1.208       .  T
C1077      C1078   1.209       .  T
C1079      C1080   1.214       .  T
C1081      C1082   1.208       .  T
C1083      C1084   1.208       .  T
C1085      C1086   1.208       .  T
C1087      C1088   1.209       .  T
C1089      C1090   1.209       .  T
C1091      C1092   1.209       .  T
C1093      C1094   1.209       .  T
C1095      C1096   1.209       .  T
C1097      C1098   1.209       .  T
C1099      C1100   1.204       .  T
C1101      C1102   1.209       .  T
C1103      C1104   1.206       .  T
C1105      C1106   1.208       .  T
C1107      C1108   1.208       .  T
C1109      C1110   1.204       .  T
C1111      C1112   1.209       .  T
C1113      C1114   1.208       .  T
C1115      C1116   1.206       .  T
C1117      C1118   1.208       .  T
C1119      C1120   1.205       .  T
C1121      C1122   1.207       .  T
C1123      C1124   1.205       .  T
C1125      C1126   1.208       .  T
C1127      C1128   1.208       .  T
C1129      C1130   1.209       .  T
C1131      C1132   1.205       .  T
C1133      C1134   1.207       .  T
C1135      C1136   1.205       .  T
C1137      C1138   1.209       .  T
C1139      C1140   1.208       .  T
C1141      C1142   1.208       .  T
C1143      C1144   1.209       .  T
C1145      C1146   1.208       .  T
C1147      C1148   1.208       .  T
C1149      C1150   1.209       .  T
C1151      C1152   1.209       .  T
C1153      C1154   1.209       .  T
C1155      C1156   1.208       .  T
C1157      C1158   1.208       .  T
C1159      C1160   1.208       .  T
C1161      C1162   1.205       .  T
C1163      C1164   1.206       .  T
C1165      C1166   1.208       .  T
C1167      C1168   1.207       .  T
C1169      C1170   1.208       .  T
C1171      C1172   1.205       .  T
C1173      C1174   1.208       .  T
C1175      C1176   1.205       .  T
C1177      C1178   1.207       .  T
C1179      C1180   1.204       .  T
C1181      C1182   1.207       .  T
C1183      C1184   1.204       .  T
C1185      C1186   1.209       .  T
C1187      C1188   1.208       .  T
C1189      C1190   1.208       .  T
C1191      C1192   1.204       .  T
C1193      C1194   1.208       .  T
C1195      C1196   1.210       .  T
C1197      C1198   1.208       .  T
C1199      C1200   1.204       .  T
