geometry optimzed in LAMMPS
_audit_creation_date              2020-11-30 
_audit_creation_method            'lammps2cif' 
_symmetry_space_group_name_H-M    'P1' 
_symmetry_Int_Tables_number       1 
_symmetry_cell_setting            triclinic 
loop_ 
_symmetry_equiv_pos_as_xyz 
  x,y,z 
_cell_length_a                    43.96532921 
_cell_length_b                    44.00499932416006 
_cell_length_c                    44.04923973060606 
_cell_angle_alpha                 90.09511762029354 
_cell_angle_beta                  89.85849809196411 
_cell_angle_gamma                 89.70142465367553 
loop_ 
_atom_site_label 
_atom_site_type_symbol 
_atom_site_fract_x 
_atom_site_fract_y 
_atom_site_fract_z 
_atom_site_charge 
O1          O  0.74165273  0.51903994  0.83909322    -0.85900
O2          O  0.78632106  0.48070332  0.85983462    -0.82900
C3          C  0.81172386  0.47353992  0.87108704     0.97600
O4          O  0.82086830  0.48702280  0.89468087    -0.83000
O5          O  0.84731206  0.53434181  0.86315500    -0.85600
C6          C  0.84818843  0.55881226  0.84828662     1.02100
O7          O  0.82539958  0.57633504  0.84708625    -0.78400
O8          O  0.77748442  0.54752662  0.82058728    -0.78600
C9          C  0.75713530  0.52785510  0.81657139     1.02100
O10         O  0.73127027  0.53916508  0.90132738    -0.85900
O11         O  0.76838097  0.49480800  0.92284670    -0.82900
C12         C  0.77911108  0.51036852  0.94454884     0.97600
O13         O  0.79894452  0.53023456  0.93903437    -0.83000
O14         O  0.82959323  0.57558669  0.90890148    -0.85600
C15         C  0.81375498  0.59958438  0.90736205     1.02100
O16         O  0.78835675  0.59947127  0.89386769    -0.78400
O17         O  0.73737470  0.57400971  0.86649514    -0.78500
C18         C  0.72486835  0.56492581  0.89069998     1.02000
Cr19       Cr  0.75876978  0.51019466  0.88066519     1.93700
Cr20       Cr  0.82159916  0.53202191  0.90015873     1.93200
Cr21       Cr  0.78212882  0.57180734  0.85835875     1.39100
O22         O  0.78760155  0.53830185  0.87981990    -1.23600
O23         O  0.74085253  0.48921052  0.58647855    -0.85900
O24         O  0.71234457  0.45919603  0.63079117    -0.82900
C25         C  0.71393255  0.43092008  0.62456836     0.97600
O26         O  0.73695579  0.41543374  0.63129832    -0.83000
O27         O  0.79611775  0.40170652  0.62393481    -0.85600
C28         C  0.80181657  0.40457523  0.59591206     1.02100
O29         O  0.79931201  0.43002325  0.58309544    -0.78400
O30         O  0.78866901  0.49135647  0.57395100    -0.78600
C31         C  0.76093851  0.49296738  0.56656572     1.02100
O32         O  0.77601672  0.52558129  0.63045056    -0.85900
O33         O  0.74928489  0.49546951  0.67519347    -0.82900
C34         C  0.74912462  0.47544336  0.69535032     0.97600
O35         O  0.74985438  0.44765455  0.68797126    -0.83000
O36         O  0.81007216  0.43943736  0.67488436    -0.85600
C37         C  0.83537465  0.43698213  0.66185507     1.02100
O38         O  0.83759698  0.44305265  0.63386641    -0.78400
O39         O  0.82051812  0.50214383  0.62986474    -0.78500
C40         C  0.80450799  0.52519154  0.63545800     1.02000
Cr41       Cr  0.74668401  0.49010690  0.63077861     1.93700
Cr42       Cr  0.77308222  0.42878681  0.65286584     1.93200
Cr43       Cr  0.80868549  0.46653475  0.60691420     1.39100
O44         O  0.77587207  0.46188582  0.63003885    -1.23600
O45         O  0.74721021  0.50117952  0.09235229    -0.85900
O46         O  0.77859811  0.54663633  0.11879652    -0.82900
C47         C  0.78097715  0.57363994  0.12792199     0.97600
O48         O  0.76456802  0.58354244  0.14951405    -0.83000
O49         O  0.71479208  0.60537142  0.11671481    -0.85600
C50         C  0.69112397  0.60321866  0.10051751     1.02100
O51         O  0.67894714  0.57779408  0.09661205    -0.78400
O52         O  0.71654474  0.53465110  0.07167628    -0.78600
C53         C  0.73753562  0.51520188  0.06905592     1.02100
O54         O  0.72062048  0.48698531  0.15287292    -0.85900
O55         O  0.75975100  0.52716116  0.17909473    -0.82900
C56         C  0.74067008  0.53583439  0.19886838     0.97600
O57         O  0.72102141  0.55539774  0.19166232    -0.83000
O58         O  0.67468096  0.58016926  0.15898926    -0.85600
C59         C  0.65312708  0.56187456  0.15431244     1.02100
O60         O  0.65771132  0.53714720  0.14021777    -0.78400
O61         O  0.69307647  0.49119953  0.11266213    -0.78500
C62         C  0.69708668  0.47968188  0.13836278     1.02000
Cr63       Cr  0.74952797  0.51719281  0.13558827     1.93700
Cr64       Cr  0.71936314  0.57842587  0.15293671     1.93200
Cr65       Cr  0.68887242  0.53556990  0.10701259     1.39100
O66         O  0.71930279  0.54420463  0.13163245    -1.23600
O67         O  0.75478948  0.48694753  0.33983213    -0.85900
O68         O  0.70795134  0.52363097  0.35757854    -0.82900
C69         C  0.68134265  0.52884717  0.36685942     0.97600
O70         O  0.67249136  0.51693991  0.39145006    -0.83000
O71         O  0.64969545  0.46536417  0.36306915    -0.85600
C72         C  0.65031995  0.43967513  0.35024041     1.02100
O73         O  0.67435120  0.42376718  0.35008663    -0.78400
O74         O  0.72051789  0.45599180  0.32237586    -0.78600
C75         C  0.73934684  0.47703288  0.31778166     1.02100
O76         O  0.76557337  0.47217095  0.40343172    -0.85900
O77         O  0.72489630  0.51449414  0.42152110    -0.82900
C78         C  0.71494363  0.49901092  0.44360645     0.97600
O79         O  0.69577063  0.47840264  0.43900847    -0.83000
O80         O  0.67005270  0.42934353  0.41182295    -0.85600
C81         C  0.68861878  0.40743946  0.41329862     1.02100
O82         O  0.71300990  0.40742828  0.39804000    -0.78400
O83         O  0.76230126  0.43479388  0.37067090    -0.78500
C84         C  0.77354901  0.44612357  0.39468892     1.02000
Cr85       Cr  0.73650653  0.49743064  0.38056703     1.93700
Cr86       Cr  0.67445541  0.47248628  0.40004055     1.93200
Cr87       Cr  0.71744237  0.43307542  0.36129131     1.39100
O88         O  0.70939359  0.46733905  0.38087008    -1.23600
O89         O  0.09333471  0.73459466  0.48396511    -0.85900
O90         O  0.10340598  0.77268217  0.53167942    -0.82900
C91         C  0.10841817  0.77879447  0.55910742     0.97600
O92         O  0.13078800  0.76696946  0.57278986    -0.83000
O93         O  0.10375995  0.71340015  0.59065100    -0.85600
C94         C  0.09302571  0.68694901  0.58831911     1.02100
O95         O  0.09717009  0.67160831  0.56445615    -0.78400
O96         O  0.07299579  0.70249126  0.51542598    -0.78600
C97         C  0.06982774  0.72376421  0.49641997     1.02100
O98         O  0.15870920  0.72230187  0.48122237    -0.85900
O99         O  0.16907727  0.76603714  0.52312868    -0.82900
C100        C  0.19042115  0.75121612  0.53551483     0.97600
O101        O  0.18414841  0.73151574  0.55507431    -0.83000
O102        O  0.15758969  0.68090406  0.57654957    -0.85600
C103        C  0.16341510  0.65973449  0.55798492     1.02100
O104        O  0.15105239  0.65896933  0.53207028    -0.78400
O105        O  0.12656778  0.68460027  0.48015257    -0.78500
C106        C  0.15136599  0.69641867  0.47176640     1.02000
Cr107      Cr  0.13097318  0.74703921  0.50674452     1.93700
Cr108      Cr  0.14308402  0.72319510  0.57106228     1.93200
Cr109      Cr  0.11283989  0.68203283  0.52343806     1.39100
O110        O  0.12898880  0.71728935  0.53396841    -1.23600
O111        O  0.92291839  0.76202470  0.48251407    -0.85900
O112        O  0.89963270  0.72794212  0.52840124    -0.82900
C113        C  0.88917941  0.72399232  0.55467274     0.97600
O114        O  0.86603715  0.73881503  0.56338242    -0.83000
O115        O  0.89946898  0.78574142  0.58835617    -0.85600
C116        C  0.91545656  0.80952529  0.58830203     1.02100
O117        O  0.91883837  0.82465451  0.56414154    -0.78400
O118        O  0.94364513  0.79058504  0.51725266    -0.78600
C119        C  0.94627181  0.77029698  0.49706507     1.02100
O120        O  0.86169962  0.78601384  0.47138722    -0.85900
O121        O  0.83775395  0.74498115  0.51095043    -0.82900
C122        C  0.81705014  0.76280400  0.52041916     0.97600
O123        O  0.82396696  0.78319837  0.53919097    -0.83000
O124        O  0.85628795  0.82787234  0.56725432    -0.85600
C125        C  0.85920520  0.85058275  0.55008481     1.02100
O126        O  0.87375728  0.84842262  0.52529921    -0.78400
O127        O  0.89982340  0.81697826  0.47645721    -0.78500
C128        C  0.87450038  0.81056916  0.46446181     1.02000
Cr129      Cr  0.88068764  0.75715224  0.50011809     1.93700
Cr130      Cr  0.86275716  0.78375288  0.56200853     1.93200
Cr131      Cr  0.90754541  0.81782046  0.52096846     1.39100
O132        O  0.88372928  0.78647134  0.52792497    -1.23600
O133        O  0.67699452  0.73732006  0.47194254    -0.85900
O134        O  0.65454967  0.77802496  0.51252867    -0.82900
C135        C  0.64394434  0.80388270  0.51899657     0.97600
O136        O  0.61900280  0.81215337  0.50729800    -0.83000
O137        O  0.64794623  0.84042252  0.45908094    -0.85600
C138        C  0.66219607  0.84272161  0.43438635     1.02100
O139        O  0.66208860  0.82144960  0.41522329    -0.78400
O140        O  0.69230515  0.77571405  0.44454975    -0.78600
C141        C  0.69777647  0.75556432  0.46411632     1.02100
O142        O  0.61448109  0.72336400  0.45293088    -0.85900
O143        O  0.59195061  0.75814177  0.49901479    -0.82900
C144        C  0.56960957  0.76878457  0.48422696     0.97600
O145        O  0.57422525  0.78975516  0.46532619    -0.83000
O146        O  0.60078005  0.82142576  0.41958434    -0.85600
C147        C  0.60068890  0.80478511  0.39611590     1.02100
O148        O  0.61690752  0.78091179  0.39494998    -0.78400
O149        O  0.64979540  0.73244535  0.41971217    -0.78500
C150        C  0.62539656  0.71911896  0.42678377     1.02000
Cr151      Cr  0.63437262  0.75095427  0.48247003     1.93700
Cr152      Cr  0.61184940  0.81376674  0.46261383     1.93200
Cr153      Cr  0.65403690  0.77741873  0.42090182     1.39100
O154        O  0.63323750  0.78083011  0.45514811    -1.23600
O155        O  0.33485480  0.73462299  0.50707610    -0.85900
O156        O  0.38374833  0.70751166  0.53098197    -0.82900
C157        C  0.37592911  0.67973495  0.52929668     0.97600
O158        O  0.38524151  0.66319863  0.50784169    -0.83000
O159        O  0.37772363  0.64683265  0.44913281    -0.85600
C160        C  0.34908247  0.64707357  0.44678911     1.02100
O161        O  0.33456152  0.67038507  0.45459237    -0.78400
O162        O  0.31792040  0.73041787  0.46108738    -0.78600
C163        C  0.31303870  0.73567615  0.48874975     1.02100
O164        O  0.37259837  0.77166928  0.46631191    -0.85900
O165        O  0.42262879  0.74510922  0.49043407    -0.82900
C166        C  0.44405431  0.72616822  0.49191680     0.97600
O167        O  0.43817509  0.69819517  0.49305180    -0.83000
O168        O  0.42356846  0.68878313  0.43171941    -0.85600
C169        C  0.40774228  0.68612108  0.40788260     1.02100
O170        O  0.37900261  0.68790438  0.40922149    -0.78400
O171        O  0.36742072  0.74586214  0.42359912    -0.78500
C172        C  0.37194883  0.77039535  0.43742915     1.02000
Cr173      Cr  0.37871325  0.73755117  0.49679654     1.93700
Cr174      Cr  0.40454167  0.67690413  0.47075275     1.93200
Cr175      Cr  0.35160926  0.70853518  0.43958866     1.39100
O176        O  0.37852985  0.70824760  0.46901243    -1.23600
O177        O  0.77839323  0.03423858  0.88947832    -0.85900
O178        O  0.73902555  0.99212994  0.91345603    -0.82900
C179        C  0.72952767  0.00850794  0.93523318     0.97600
O180        O  0.71022723  0.02925626  0.93019973    -0.83000
O181        O  0.68263496  0.07761968  0.90090971    -0.85600
C182        C  0.70056741  0.09986614  0.89826220     1.02100
O183        O  0.72507472  0.09727241  0.88328493    -0.78400
O184        O  0.77198087  0.06612170  0.85248750    -0.78600
C185        C  0.78459691  0.05939507  0.87732880     1.02100
O186        O  0.76288336  0.01322923  0.82738439    -0.85900
O187        O  0.71863871  0.97826197  0.85189661    -0.82900
C188        C  0.69220384  0.97421920  0.86214252     0.97600
O189        O  0.68343202  0.98833719  0.88572242    -0.83000
O190        O  0.65972581  0.03825837  0.85562410    -0.85600
C191        C  0.66059879  0.06180869  0.83931352     1.02100
O192        O  0.68398302  0.07803511  0.83932151    -0.78400
O193        O  0.72703769  0.04328136  0.81057674    -0.78500
C194        C  0.74619866  0.02240036  0.80569807     1.02000
Cr195      Cr  0.74803647  0.00643929  0.87064334     1.93700
Cr196      Cr  0.68651961  0.03327749  0.89185378     1.93200
Cr197      Cr  0.72699415  0.06883219  0.84790628     1.39100
O198        O  0.72035637  0.03635307  0.87036483    -1.23600
O199        O  0.77962635  0.96638845  0.60017185    -0.85900
O200        O  0.73895064  0.00614968  0.57772419    -0.82900
C201        C  0.73013327  0.99080411  0.55487853     0.97600
O202        O  0.71211473  0.96887417  0.55865712    -0.83000
O203        O  0.68491454  0.91981944  0.58595944    -0.85600
C204        C  0.70449680  0.89896377  0.58370073     1.02100
O205        O  0.72860011  0.89980914  0.59933713    -0.78400
O206        O  0.77471112  0.92834693  0.63175471    -0.78600
C207        C  0.78820327  0.94077816  0.60957496     1.02100
O208        O  0.76191638  0.98135671  0.66298516    -0.85900
O209        O  0.71542172  0.01575191  0.64072059    -0.82900
C210        C  0.68998135  0.01979095  0.62825921     0.97600
O211        O  0.68553728  0.00763177  0.60288267    -0.83000
O212        O  0.66182608  0.95651840  0.63287587    -0.85600
C213        C  0.66214565  0.93090179  0.64592862     1.02100
O214        O  0.68610076  0.91483902  0.64602023    -0.78400
O215        O  0.72945115  0.94676169  0.67702405    -0.78500
C216        C  0.74614635  0.96901142  0.68370178     1.02000
Cr217      Cr  0.74731957  0.99047002  0.62031618     1.93700
Cr218      Cr  0.68832426  0.96317375  0.59656234     1.93200
Cr219      Cr  0.72959112  0.92495944  0.63734260     1.39100
O220        O  0.72186730  0.95923204  0.61789833    -1.23600
O221        O  0.78323246  0.02470205  0.34668449    -0.85900
O222        O  0.74268201  0.98281474  0.32789494    -0.82900
C223        C  0.75824026  0.97248813  0.30582116     0.97600
O224        O  0.77993670  0.95446028  0.31107663    -0.83000
O225        O  0.82941563  0.92890012  0.33926542    -0.85600
C226        C  0.85195320  0.94651611  0.33904894     1.02100
O227        O  0.85010989  0.97246586  0.35150483    -0.78400
O228        O  0.82079435  0.02217754  0.37919387    -0.78600
C229        C  0.80869773  0.03370455  0.35583278     1.02100
O230        O  0.76728476  0.01302268  0.41057315    -0.85900
O231        O  0.73330450  0.96584561  0.39175648    -0.82900
C232        C  0.72822282  0.93961708  0.38183529     0.97600
O233        O  0.74141083  0.93002997  0.35817924    -0.83000
O234        O  0.79337089  0.90916058  0.38771645    -0.85600
C235        C  0.81860186  0.91131283  0.40134065     1.02100
O236        O  0.83310071  0.93587198  0.40081823    -0.78400
O237        O  0.80176631  0.98170079  0.42761932    -0.78500
C238        C  0.77981087  0.99944829  0.43268339     1.02000
Cr239      Cr  0.75875210  0.99484018  0.36922759     1.93700
Cr240      Cr  0.78595494  0.93337652  0.35027781     1.93200
Cr241      Cr  0.82377425  0.97784406  0.38843367     1.39100
O242        O  0.78974256  0.96860638  0.36926653    -1.23600
O243        O  0.78417518  0.97295697  0.14360217    -0.85900
O244        O  0.73882476  0.00996428  0.16140829    -0.82900
C245        C  0.75271586  0.02151381  0.18384405     0.97600
O246        O  0.77133164  0.04290469  0.17969222    -0.83000
O247        O  0.81794137  0.07475727  0.15197282    -0.85600
C248        C  0.84230462  0.05959719  0.15331768     1.02100
O249        O  0.84365514  0.03317628  0.14198942    -0.78400
O250        O  0.82304454  0.98053515  0.11351263    -0.78600
C251        C  0.81143610  0.96798833  0.13651463     1.02100
O252        O  0.76902753  0.98361321  0.07891914    -0.85900
O253        O  0.72866070  0.02654062  0.09743996    -0.82900
C254        C  0.72033647  0.05203304  0.10747015     0.97600
O255        O  0.73115197  0.06200086  0.13199722    -0.83000
O256        O  0.78040859  0.08869599  0.10213072    -0.85600
C257        C  0.80536293  0.08857167  0.08760482     1.02100
O258        O  0.82469137  0.06770866  0.09172084    -0.78400
O259        O  0.80083555  0.01829847  0.06426089    -0.78500
C260        C  0.78057442  0.99929360  0.05772253     1.02000
Cr261      Cr  0.75701176  0.00018173  0.12037628     1.93700
Cr262      Cr  0.77557388  0.06451632  0.14030328     1.93200
Cr263      Cr  0.82039678  0.02478030  0.10412805     1.39100
O264        O  0.78453433  0.02983846  0.12170227    -1.23600
O265        O  0.88275667  0.71838026  0.97205345    -0.85900
O266        O  0.83925624  0.74581382  0.00288546    -0.82900
C267        C  0.82009615  0.75046717  0.02329829     0.97600
O268        O  0.82855701  0.75066223  0.05071871    -0.83000
O269        O  0.83669497  0.68889197  0.05991372    -0.85600
C270        C  0.84916649  0.66310825  0.06178299     1.02100
O271        O  0.87715730  0.65978316  0.05519030    -0.78400
O272        O  0.88218387  0.67434759  0.99572334    -0.78600
C273        C  0.87599271  0.69038967  0.97302060     1.02100
O274        O  0.92653731  0.75327999  0.00757834    -0.85900
O275        O  0.88310263  0.78304735  0.03707682    -0.82900
C276        C  0.89297619  0.78134491  0.06413701     0.97600
O277        O  0.88657995  0.75906203  0.08065810    -0.83000
O278        O  0.88940635  0.69981249  0.09593883    -0.85600
C279        C  0.91725571  0.69304974  0.09260232     1.02100
O280        O  0.92968719  0.69635825  0.06710623    -0.78400
O281        O  0.93962089  0.70565991  0.00576666    -0.78500
C282        C  0.94653857  0.73355641  0.00342324     1.02000
Cr283      Cr  0.88290750  0.74811868  0.00701565     1.93700
Cr284      Cr  0.86169503  0.72462784  0.06919956     1.93200
Cr285      Cr  0.90571364  0.68656390  0.03099362     1.39100
O286        O  0.88343448  0.71978626  0.03552849    -1.23600
O287        O  0.62867713  0.72605733  0.03598753    -0.85900
O288        O  0.67549111  0.74769776  0.00412368    -0.82900
C289        C  0.69496058  0.74959924  0.98348494     0.97600
O290        O  0.68685582  0.74696962  0.95618250    -0.83000
O291        O  0.67543314  0.68477518  0.95304145    -0.85600
C292        C  0.66096356  0.66011424  0.95254684     1.02100
O293        O  0.63269232  0.65977829  0.95806636    -0.78400
O294        O  0.62773347  0.68052606  0.01531901    -0.78600
C295        C  0.63321052  0.69757983  0.03750488     1.02100
O296        O  0.58789157  0.76072488  0.99599842    -0.85900
O297        O  0.63498898  0.78408684  0.96544874    -0.82900
C298        C  0.62802846  0.78109681  0.93761602     0.97600
O299        O  0.63186843  0.75653192  0.92363879    -0.83000
O300        O  0.62483730  0.69657288  0.91389235    -0.85600
C301        C  0.59654417  0.69216987  0.91652136     1.02100
O302        O  0.58307624  0.69843655  0.94104887    -0.78400
O303        O  0.57319605  0.71395747  0.00156187    -0.78500
C304        C  0.56717705  0.74214515  0.00153036     1.02000
Cr305      Cr  0.63166933  0.75240228  0.99841868     1.93700
Cr306      Cr  0.65324730  0.72143718  0.93930587     1.93200
Cr307      Cr  0.60575980  0.69067760  0.97877077     1.39100
O308        O  0.63008423  0.72171361  0.97226191    -1.23600
O309        O  0.40253181  0.72484789  0.97403846    -0.85900
O310        O  0.41882435  0.76738717  0.01527657    -0.82900
C311        C  0.44080935  0.77772503  0.99982677     0.97600
O312        O  0.43552762  0.79527491  0.97779027    -0.83000
O313        O  0.40628475  0.82092901  0.92892534    -0.85600
C314        C  0.41129042  0.80223758  0.90788049     1.02100
O315        O  0.39825383  0.77661191  0.90826313    -0.78400
O316        O  0.37099739  0.72647840  0.93554625    -0.78600
C317        C  0.39408413  0.71517714  0.94852699     1.02100
O318        O  0.33912981  0.73380368  0.98822327    -0.85900
O319        O  0.35365561  0.78310910  0.02360711    -0.82900
C320        C  0.36381321  0.80936978  0.02875365     0.97600
O321        O  0.38840757  0.81710387  0.01634199    -0.83000
O322        O  0.35699393  0.83783190  0.96590056    -0.85600
C323        C  0.34443846  0.83664891  0.94018120     1.02100
O324        O  0.34653028  0.81298124  0.92385607    -0.78400
O325        O  0.32039150  0.76464174  0.95416486    -0.78500
C326        C  0.31642941  0.74601053  0.97559679     1.02000
Cr327      Cr  0.37839574  0.75403255  0.99838313     1.93700
Cr328      Cr  0.39563801  0.81534114  0.97211303     1.93200
Cr329      Cr  0.36009478  0.77053594  0.93294370     1.39100
O330        O  0.37803591  0.77990106  0.96752667    -1.23600
O331        O  0.10922176  0.72509364  0.03216714    -0.85900
O332        O  0.09417083  0.75949564  0.98241651    -0.82900
C333        C  0.07169176  0.77190766  0.99546751     0.97600
O334        O  0.07618246  0.79296442  0.01430229    -0.83000
O335        O  0.10123213  0.82603789  0.06003150    -0.85600
C336        C  0.09880812  0.81124332  0.08437624     1.02100
O337        O  0.11329529  0.78643229  0.08761868    -0.78400
O338        O  0.14289997  0.73339803  0.06733899    -0.78600
C339        C  0.11814870  0.72145352  0.05918252     1.02100
O340        O  0.17362278  0.73216250  0.01692815    -0.85900
O341        O  0.15877463  0.77435029  0.97364828    -0.82900
C342        C  0.14942440  0.79992886  0.96438751     0.97600
O343        O  0.12475190  0.81070626  0.97458272    -0.83000
O344        O  0.15150448  0.84051181  0.02325358    -0.85600
C345        C  0.16300830  0.84295724  0.04936810     1.02100
O346        O  0.16287680  0.82080871  0.06755661    -0.78400
O347        O  0.19146950  0.76976747  0.04384004    -0.78500
C348        C  0.19599160  0.74734790  0.02640620     1.02000
Cr349      Cr  0.13394703  0.74976616  0.00288364     1.93700
Cr350      Cr  0.11471724  0.81499290  0.01841925     1.93200
Cr351      Cr  0.15159886  0.77753245  0.06414075     1.39100
O352        O  0.13349293  0.78102283  0.02864458    -1.23600
O353        O  0.23534805  0.98563545  0.16160345    -0.85900
O354        O  0.27568355  0.02745542  0.14262524    -0.82900
C355        C  0.30141901  0.03600222  0.13359958     0.97600
O356        O  0.31330923  0.02443285  0.11006646    -0.83000
O357        O  0.34128400  0.97366097  0.13679844    -0.85600
C358        C  0.34248454  0.94760028  0.14901445     1.02100
O359        O  0.32007384  0.92998788  0.14732049    -0.78400
O360        O  0.27257876  0.95648464  0.17706831    -0.78600
C361        C  0.25166480  0.97523503  0.18286610     1.02100
O362        O  0.22399038  0.96908550  0.09847912    -0.85900
O363        O  0.25788879  0.01621306  0.07899933    -0.82900
C364        C  0.27028208  0.00287260  0.05663838     0.97600
O365        O  0.29261407  0.98533796  0.06114467    -0.83000
O366        O  0.32303192  0.93785379  0.08651665    -0.85600
C367        C  0.30770710  0.91369698  0.08581906     1.02100
O368        O  0.28235091  0.91228014  0.09941438    -0.78400
O369        O  0.23195451  0.93356405  0.13180273    -0.78500
C370        C  0.21818082  0.94314579  0.10866941     1.02000
Cr371      Cr  0.25031757  0.99789373  0.12030937     1.93700
Cr372      Cr  0.31495750  0.98010537  0.09994022     1.93200
Cr373      Cr  0.27670725  0.93579333  0.13762623     1.39100
O374        O  0.28087636  0.97125082  0.11924062    -1.23600
O375        O  0.24123151  0.00606645  0.90891619    -0.85900
O376        O  0.27927166  0.96097741  0.88912559    -0.82900
C377        C  0.28645847  0.93541592  0.87834549     0.97600
O378        O  0.27448627  0.92660343  0.85396854    -0.83000
O379        O  0.22617145  0.90004294  0.88471197    -0.85600
C380        C  0.20102757  0.89880458  0.89862728     1.02100
O381        O  0.18350169  0.92170491  0.89969280    -0.78400
O382        O  0.21113847  0.97133146  0.92743059    -0.78600
C383        C  0.23060926  0.99200435  0.93155397     1.02100
O384        O  0.22293973  0.01704131  0.84639989    -0.85900
O385        O  0.26751968  0.97888424  0.82626507    -0.82900
C386        C  0.25237684  0.96829129  0.80431278     0.97600
O387        O  0.23253293  0.94833031  0.80909537    -0.83000
O388        O  0.18693690  0.91800472  0.83793119    -0.85600
C389        C  0.16379153  0.93480453  0.83653849     1.02100
O390        O  0.16270810  0.95935826  0.85153531    -0.78400
O391        O  0.18681696  0.01006563  0.88003698    -0.78500
C392        C  0.19714441  0.02390271  0.85704147     1.02000
Cr393      Cr  0.25095723  0.98878179  0.86770420     1.93700
Cr394      Cr  0.22979184  0.92579120  0.84782064     1.93200
Cr395      Cr  0.18863778  0.96542593  0.88839893     1.39100
O396        O  0.22287520  0.95992411  0.86800774    -1.23600
O397        O  0.26278359  0.00682049  0.66081432    -0.85900
O398        O  0.21785430  0.96971264  0.64117430    -0.82900
C399        C  0.19183315  0.96306626  0.63141904     0.97600
O400        O  0.18140309  0.97659461  0.60845043    -0.83000
O401        O  0.15766448  0.02512942  0.64220764    -0.85600
C402        C  0.15762216  0.05058924  0.65558731     1.02100
O403        O  0.18081624  0.06743652  0.65478090    -0.78400
O404        O  0.22945195  0.03868020  0.67981104    -0.78600
C405        C  0.24924732  0.01833439  0.68357564     1.02100
O406        O  0.27305916  0.02633035  0.59805114    -0.85900
O407        O  0.23369970  0.98451549  0.57724760    -0.82900
C408        C  0.22185790  0.00112034  0.55684727     0.97600
O409        O  0.20149936  0.01998585  0.56392933    -0.83000
O410        O  0.17343146  0.06498565  0.59506278    -0.85600
C411        C  0.19028798  0.08805344  0.59392984     1.02100
O412        O  0.21660544  0.08737127  0.60542460    -0.78400
O413        O  0.26805304  0.06193840  0.63242761    -0.78500
C414        C  0.28090249  0.05157825  0.60886553     1.02000
Cr415      Cr  0.24494325  0.99858774  0.61948157     1.93700
Cr416      Cr  0.18112635  0.02165326  0.60361495     1.93200
Cr417      Cr  0.22357915  0.06128046  0.64174859     1.39100
O418        O  0.21651072  0.02730799  0.62167035    -1.23600
O419        O  0.24612771  0.01804874  0.41323107    -0.85900
O420        O  0.21607139  0.04066028  0.36579379    -0.82900
C421        C  0.21560762  0.06877021  0.37184281     0.97600
O422        O  0.23757436  0.08570044  0.36551299    -0.83000
O423        O  0.29573055  0.10358755  0.37079541    -0.85600
C424        C  0.30073360  0.10257353  0.39906678     1.02100
O425        O  0.30046107  0.07763353  0.41320157    -0.78400
O426        O  0.29398070  0.01574803  0.42508083    -0.78600
C427        C  0.26628451  0.01424197  0.43294433     1.02100
O428        O  0.28349203  0.97980605  0.37350033    -0.85900
O429        O  0.25526623  0.00482859  0.32596338    -0.82900
C430        C  0.25127791  0.02370718  0.30503712     0.97600
O431        O  0.25116261  0.05180661  0.31107460    -0.83000
O432        O  0.31179981  0.06512053  0.32100107    -0.85600
C433        C  0.33682369  0.06920840  0.33421785     1.02100
O434        O  0.33911609  0.06444492  0.36247574    -0.78400
O435        O  0.32622138  0.00482948  0.36814117    -0.78500
C436        C  0.31048046  0.98154413  0.36351934     1.02000
Cr437      Cr  0.25220783  0.01297580  0.36949706     1.93700
Cr438      Cr  0.27418423  0.07406377  0.34367376     1.93200
Cr439      Cr  0.31244347  0.04050970  0.39082766     1.39100
O440        O  0.27945918  0.04250051  0.36796564    -1.23600
O441        O  0.03599652  0.89172911  0.77200334    -0.85900
O442        O  0.99194366  0.91867866  0.73792402    -0.82900
C443        C  0.00800206  0.94014420  0.72738387     0.97600
O444        O  0.02781636  0.93443225  0.70743003    -0.83000
O445        O  0.07068035  0.90390233  0.67281744    -0.85600
C446        C  0.09420968  0.90024800  0.68886249     1.02100
O447        O  0.09336650  0.88437799  0.71269590    -0.78400
O448        O  0.06705281  0.85448021  0.76145538    -0.78600
C449        C  0.06153051  0.87906211  0.77546734     1.02100
O450        O  0.01132376  0.83129320  0.75733902    -0.85900
O451        O  0.97373942  0.85785504  0.71634651    -0.82900
C452        C  0.96790581  0.87042164  0.69132252     0.97600
O453        O  0.98147323  0.89471998  0.68455460    -0.83000
O454        O  0.02574628  0.86270014  0.65319636    -0.85600
C455        C  0.04848854  0.84532640  0.65042953     1.02100
O456        O  0.06718672  0.84162181  0.67191937    -0.78400
O457        O  0.03830274  0.81339625  0.71946822    -0.78500
C458        C  0.01967322  0.80912243  0.74081168     1.02000
Cr459      Cr  0.00494318  0.87485005  0.74403176     1.93700
Cr460      Cr  0.02660540  0.89746983  0.68183633     1.93200
Cr461      Cr  0.06423956  0.85004456  0.71643372     1.39100
O462        O  0.03211513  0.87405247  0.71390969    -1.23600
O463        O  0.96570571  0.60249203  0.76993768    -0.85900
O464        O  0.00563257  0.57939424  0.72955663    -0.82900
C465        C  0.98834605  0.55818757  0.72043351     0.97600
O466        O  0.96887550  0.56380418  0.70031107    -0.83000
O467        O  0.92254686  0.59325864  0.67205290    -0.85600
C468        C  0.89964172  0.59291331  0.68932915     1.02100
O469        O  0.90086230  0.60601939  0.71492411    -0.78400
O470        O  0.92820586  0.63506684  0.76442770    -0.78600
C471        C  0.94048048  0.61309754  0.77832242     1.02100
O472        O  0.98357655  0.66471646  0.75568940    -0.85900
O473        O  0.01872019  0.64251346  0.71008208    -0.82900
C474        C  0.02434251  0.63133626  0.68441029     0.97600
O475        O  0.01102837  0.60739913  0.67621501    -0.83000
O476        O  0.96159848  0.63975382  0.65304367    -0.85600
C477        C  0.93659230  0.65415057  0.65358553     1.02100
O478        O  0.92009516  0.65419518  0.67704882    -0.78400
O479        O  0.94952151  0.68169035  0.72381333    -0.78500
C480        C  0.97065598  0.68681892  0.74234285     1.02000
Cr481      Cr  0.99147841  0.62231146  0.73942072     1.93700
Cr482      Cr  0.96605717  0.60239894  0.67796560     1.93200
Cr483      Cr  0.92733814  0.64276018  0.71986783     1.39100
O484        O  0.96140411  0.62253308  0.71245484    -1.23600
O485        O  0.96197632  0.39341100  0.72984100    -0.85900
O486        O  0.00868430  0.41617888  0.76399752    -0.82900
C487        C  0.99316747  0.43780685  0.77517558     0.97600
O488        O  0.97530060  0.43275862  0.79690157    -0.83000
O489        O  0.93090526  0.40492851  0.82922835    -0.85600
C490        C  0.90702061  0.40414865  0.81327974     1.02100
O491        O  0.90637213  0.38898206  0.78878749    -0.78400
O492        O  0.93056655  0.35677099  0.73925708    -0.78600
C493        C  0.93643116  0.38125952  0.72561158     1.02100
O494        O  0.98383783  0.33091605  0.74258027    -0.85900
O495        O  0.02402634  0.35385383  0.78208819    -0.82900
C496        C  0.03192482  0.36407518  0.80753193     0.97600
O497        O  0.01933067  0.38769810  0.81834424    -0.83000
O498        O  0.97158979  0.35858201  0.84789565    -0.85600
C499        C  0.94630735  0.34522425  0.85026793     1.02100
O500        O  0.92848648  0.34376096  0.82792124    -0.78400
O501        O  0.95685576  0.31394753  0.78071392    -0.78500
C502        C  0.97559813  0.30908802  0.75949626     1.02000
Cr503      Cr  0.99294305  0.37369453  0.75651311     1.93700
Cr504      Cr  0.97421738  0.39462361  0.82059975     1.93200
Cr505      Cr  0.93294813  0.35219207  0.78409674     1.39100
O506        O  0.96668803  0.37344358  0.78735658    -1.23600
O507        O  0.03647477  0.10343449  0.72521624    -0.85900
O508        O  0.99373410  0.08486492  0.76536471    -0.82900
C509        C  0.00849717  0.06258562  0.77614768     0.97600
O510        O  0.02890257  0.06708270  0.79562590    -0.83000
O511        O  0.07907875  0.09396022  0.82004558    -0.85600
C512        C  0.10140331  0.09307609  0.80183629     1.02100
O513        O  0.10000154  0.10656270  0.77647906    -0.78400
O514        O  0.07173440  0.13773979  0.72879733    -0.78600
C515        C  0.06177701  0.11371865  0.71688057     1.02100
O516        O  0.02036887  0.16746172  0.73798013    -0.85900
O517        O  0.98385896  0.14835905  0.78291976    -0.82900
C518        C  0.97779687  0.13907054  0.80918480     0.97600
O519        O  0.99118550  0.11592117  0.81990646    -0.83000
O520        O  0.04363012  0.14376555  0.84080399    -0.85600
C521        C  0.06932462  0.15653013  0.83946930     1.02100
O522        O  0.08499463  0.15478548  0.81563057    -0.78400
O523        O  0.05291613  0.18385407  0.77149385    -0.78500
C524        C  0.03143010  0.18913620  0.75336443     1.02000
Cr525      Cr  0.01058197  0.12594087  0.75456673     1.93700
Cr526      Cr  0.03570263  0.10639619  0.81652881     1.93200
Cr527      Cr  0.07486908  0.14443794  0.77329569     1.39100
O528        O  0.04049215  0.12543196  0.78163032    -1.23600
O529        O  0.45675808  0.89770154  0.23135693    -0.85900
O530        O  0.49849033  0.91509267  0.27339286    -0.82900
C531        C  0.48123577  0.93567758  0.28389098     0.97600
O532        O  0.46154729  0.92869211  0.30336219    -0.83000
O533        O  0.41376977  0.89784111  0.32754983    -0.85600
C534        C  0.39204348  0.89921473  0.30888006     1.02100
O535        O  0.39417409  0.88720203  0.28288419    -0.78400
O536        O  0.42245545  0.86206256  0.23249629    -0.78600
C537        C  0.43230991  0.88668528  0.22153310     1.02100
O538        O  0.47616089  0.83428673  0.23837953    -0.85900
O539        O  0.51191048  0.85143992  0.28533078    -0.82900
C540        C  0.51830554  0.86018299  0.31175164     0.97600
O541        O  0.50291950  0.88113721  0.32441610    -0.83000
O542        O  0.45239435  0.84951056  0.34457107    -0.85600
C543        C  0.42696035  0.83645170  0.34294292     1.02100
O544        O  0.41202405  0.83727481  0.31846321    -0.78400
O545        O  0.44473245  0.81343474  0.27062199    -0.78500
C546        C  0.46544104  0.81079061  0.25094547     1.02000
Cr547      Cr  0.48378820  0.87442371  0.25893310     1.93700
Cr548      Cr  0.45785109  0.88820963  0.32227867     1.93200
Cr549      Cr  0.42084831  0.85116836  0.27653218     1.39100
O550        O  0.45409466  0.87111079  0.28614682    -1.23600
O551        O  0.46824764  0.62613558  0.28212319    -0.85900
O552        O  0.49567470  0.66952118  0.25066962    -0.82900
C553        C  0.51537272  0.68916893  0.24514064     0.97600
O554        O  0.54321689  0.68150515  0.24450480    -0.83000
O555        O  0.55719726  0.67110741  0.30484789    -0.85600
C556        C  0.56183796  0.65793852  0.32975908     1.02100
O557        O  0.55632233  0.62980782  0.33254541    -0.78400
O558        O  0.49650251  0.62593110  0.32345054    -0.78600
C559        C  0.47249398  0.63307476  0.30989614     1.02100
O560        O  0.50116844  0.58166503  0.24316751    -0.85900
O561        O  0.52723456  0.62505534  0.21128848    -0.82900
C562        C  0.55529853  0.61792132  0.21022426     0.97600
O563        O  0.57308040  0.62402016  0.23156072    -0.83000
O564        O  0.59297225  0.61827278  0.28940058    -0.85600
C565        C  0.58956919  0.59023841  0.29533323     1.02100
O566        O  0.56396268  0.57844125  0.29170258    -0.78400
O567        O  0.50206275  0.56989088  0.29082384    -0.78500
C568        C  0.49860549  0.56213283  0.26343589     1.02000
Cr569      Cr  0.50021581  0.62561301  0.24864514     1.93700
Cr570      Cr  0.56405173  0.64731010  0.26770924     1.93200
Cr571      Cr  0.52969563  0.60241818  0.30714644     1.39100
O572        O  0.53098357  0.62542544  0.27442781    -1.23600
O573        O  0.47890885  0.37098108  0.20278683    -0.85900
O574        O  0.50875991  0.32717902  0.23079338    -0.82900
C575        C  0.52967765  0.30804031  0.23316748     0.97600
O576        O  0.55682376  0.31677511  0.23570410    -0.83000
O577        O  0.56910315  0.33372255  0.17626863    -0.85600
C578        C  0.57179570  0.34920686  0.15232025     1.02100
O579        O  0.56712691  0.37760878  0.15263777    -0.78400
O580        O  0.50685893  0.38059250  0.16239435    -0.78600
C581        C  0.48350965  0.36930065  0.17425722     1.02100
O582        O  0.50621461  0.41479928  0.24576490    -0.85900
O583        O  0.53781659  0.37174589  0.27379261    -0.82900
C584        C  0.56565211  0.37988119  0.27501426     0.97600
O585        O  0.58402704  0.37370472  0.25402846    -0.83000
O586        O  0.60361299  0.38441760  0.19753942    -0.85600
C587        C  0.60052481  0.41287680  0.19505032     1.02100
O588        O  0.57463201  0.42501387  0.19685730    -0.78400
O589        O  0.51234856  0.43247791  0.20015650    -0.78500
C590        C  0.50502308  0.43650521  0.22757499     1.02000
Cr591      Cr  0.51042212  0.37139583  0.23649325     1.93700
Cr592      Cr  0.57550546  0.35362763  0.21580982     1.93200
Cr593      Cr  0.54018912  0.40204041  0.18071755     1.39100
O594        O  0.54174974  0.37575837  0.21121571    -1.23600
O595        O  0.46290578  0.10616276  0.26622368    -0.85900
O596        O  0.50396596  0.07429758  0.23116953    -0.82900
C597        C  0.48495785  0.05360984  0.22563309     0.97600
O598        O  0.46405679  0.05837902  0.20681595    -0.83000
O599        O  0.42002984  0.08768668  0.17392394    -0.85600
C600        C  0.39802810  0.09641526  0.19042986     1.02100
O601        O  0.40179991  0.11532798  0.21154906    -0.78400
O602        O  0.43462681  0.14544357  0.25521657    -0.78600
C603        C  0.43888787  0.12139710  0.27046397     1.02100
O604        O  0.49004363  0.16318229  0.24633164    -0.85900
O605        O  0.52283120  0.13130969  0.20469272    -0.82900
C606        C  0.52590198  0.11794633  0.17956772     0.97600
O607        O  0.51081113  0.09388857  0.17437467    -0.83000
O608        O  0.46510345  0.12284501  0.14502622    -0.85600
C609        C  0.44466291  0.14264428  0.14256365     1.02100
O610        O  0.42872264  0.15093205  0.16507904    -0.78400
O611        O  0.46440752  0.17954736  0.20746706    -0.78500
C612        C  0.48380437  0.18437516  0.22794497     1.02000
Cr613      Cr  0.49309992  0.11865756  0.23538768     1.93700
Cr614      Cr  0.46516657  0.09216614  0.17732501     1.93200
Cr615      Cr  0.43450930  0.14611825  0.20982761     1.39100
O616        O  0.46400960  0.11898888  0.20717927    -1.23600
O617        O  0.16697575  0.24360403  0.98691596    -0.85900
O618        O  0.14236689  0.28668332  0.02418612    -0.82900
C619        C  0.13067612  0.31230315  0.02975045     0.97600
O620        O  0.10631871  0.32024637  0.01635066    -0.83000
O621        O  0.13475715  0.34861539  0.96937147    -0.85600
C622        C  0.15196038  0.35067734  0.94675502     1.02100
O623        O  0.15650799  0.32831949  0.92921101    -0.78400
O624        O  0.18461531  0.28158363  0.96045546    -0.78600
C625        C  0.18918954  0.25941829  0.97793439     1.02100
O626        O  0.10611747  0.23019180  0.96474411    -0.85900
O627        O  0.08163842  0.26631335  0.00937037    -0.82900
C628        C  0.05952013  0.27569069  0.99361469     0.97600
O629        O  0.06415674  0.29429946  0.97251904    -0.83000
O630        O  0.09261048  0.32576664  0.92660306    -0.85600
C631        C  0.09730006  0.30905307  0.90359475     1.02100
O632        O  0.11425773  0.28601013  0.90511346    -0.78400
O633        O  0.14334701  0.23877447  0.93301431    -0.78500
C634        C  0.11896665  0.22497640  0.93963397     1.02000
Cr635      Cr  0.12421727  0.25856088  0.99446275     1.93700
Cr636      Cr  0.10083801  0.31986149  0.97106033     1.93200
Cr637      Cr  0.14820940  0.28382245  0.93433179     1.39100
O638        O  0.12443814  0.28769702  0.96640829    -1.23600
O639        O  0.91782469  0.23193625  0.01278756    -0.85900
O640        O  0.89869850  0.27285431  0.97078145    -0.82900
C641        C  0.88825001  0.28151396  0.94563355     0.97600
O642        O  0.86520187  0.26861697  0.93450726    -0.83000
O643        O  0.89778836  0.22197928  0.90635519    -0.85600
C644        C  0.91155835  0.19673841  0.90433396     1.02100
O645        O  0.91105788  0.17792243  0.92604458    -0.78400
O646        O  0.93710798  0.20406982  0.97617095    -0.78600
C647        C  0.94050146  0.22299940  0.99737239     1.02100
O648        O  0.85458554  0.21275930  0.02108869    -0.85900
O649        O  0.83566189  0.25891063  0.98485302    -0.82900
C650        C  0.81473147  0.24242623  0.97434833     0.97600
O651        O  0.82048358  0.22413728  0.95306703    -0.83000
O652        O  0.85102652  0.18094515  0.92059641    -0.85600
C653        C  0.84849164  0.15755342  0.93682126     1.02100
O654        O  0.86231625  0.15586710  0.96191542    -0.78400
O655        O  0.89014062  0.17893313  0.01385317    -0.78500
C656        C  0.86481720  0.18638357  0.02547868     1.02000
Cr657      Cr  0.87689515  0.24246278  0.99560776     1.93700
Cr658      Cr  0.85976851  0.22379677  0.93099939     1.93200
Cr659      Cr  0.89899727  0.18144692  0.96952530     1.39100
O660        O  0.87882231  0.21585463  0.96515688    -1.23600
O661        O  0.58798115  0.25105734  0.00547770    -0.85900
O662        O  0.63404051  0.27395926  0.03779285    -0.82900
C663        C  0.62393355  0.27133664  0.06462265     0.97600
O664        O  0.62679407  0.24699089  0.07908434    -0.83000
O665        O  0.61487005  0.18812083  0.08827741    -0.85600
C666        C  0.58691832  0.18339116  0.08316990     1.02100
O667        O  0.57618218  0.18807967  0.05699648    -0.78400
O668        O  0.57410557  0.20474408  0.99591808    -0.78600
C669        C  0.56756980  0.23271665  0.99826651     1.02100
O670        O  0.63066115  0.21553521  0.96748264    -0.85900
O671        O  0.67592481  0.23638805  0.00212915    -0.82900
C672        C  0.69419828  0.23571335  0.02389030     0.97600
O673        O  0.68483768  0.23231267  0.05085047    -0.83000
O674        O  0.66837280  0.17221871  0.05498638    -0.85600
C675        C  0.65311206  0.14814159  0.05379802     1.02100
O676        O  0.62575791  0.14856901  0.04522435    -0.78400
O677        O  0.62938798  0.16971692  0.98725630    -0.78500
C678        C  0.63753371  0.18748552  0.96647168     1.02000
Cr679      Cr  0.63177846  0.24192154  0.00511350     1.93700
Cr680      Cr  0.64745206  0.21031182  0.06560466     1.93200
Cr681      Cr  0.60305939  0.18033322  0.02164141     1.39100
O682        O  0.62744482  0.21101498  0.03081968    -1.23600
O683        O  0.33334424  0.24924319  0.99644572    -0.85900
O684        O  0.37670378  0.27705314  0.96468838    -0.82900
C685        C  0.36795847  0.30459406  0.96484153     0.97600
O686        O  0.37131585  0.32118794  0.98774839    -0.83000
O687        O  0.36858935  0.33787409  0.04699800    -0.85600
C688        C  0.34121706  0.33375824  0.05496107     1.02100
O689        O  0.32995236  0.30769199  0.05289600    -0.78400
O690        O  0.32301861  0.24648809  0.04466887    -0.78600
C691        C  0.31414331  0.24634921  0.01730880     1.02100
O692        O  0.37848732  0.21404726  0.03086125    -0.85900
O693        O  0.42178426  0.24490764  0.00184936    -0.82900
C694        C  0.43990436  0.26603556  0.99639495     0.97600
O695        O  0.43033764  0.29326224  0.99632357    -0.83000
O696        O  0.42282730  0.30406463  0.05728647    -0.85600
C697        C  0.41198095  0.30597085  0.08364015     1.02100
O698        O  0.38442743  0.29865315  0.08826904    -0.78400
O699        O  0.38212159  0.23890891  0.07390749    -0.78500
C700        C  0.38886814  0.21642277  0.05759661     1.02000
Cr701      Cr  0.37749085  0.24827290  0.00044385     1.93700
Cr702      Cr  0.39684960  0.31152904  0.02222581     1.93200
Cr703      Cr  0.35617400  0.27288956  0.06244556     1.39100
O704        O  0.37685977  0.27743025  0.02829641    -1.23600
O705        O  0.48610802  0.07228399  0.73243455    -0.85900
O706        O  0.53175138  0.09579035  0.76764023    -0.82900
C707        C  0.55707632  0.10844993  0.77188331     0.97600
O708        O  0.56222884  0.13299507  0.75818852    -0.83000
O709        O  0.59021016  0.09852247  0.71169984    -0.85600
C710        C  0.58979202  0.08187700  0.68814686     1.02100
O711        O  0.56651734  0.08147489  0.67138805    -0.78400
O712        O  0.51976601  0.05437441  0.70043249    -0.78600
C713        C  0.50021055  0.04989672  0.72079576     1.02100
O714        O  0.47187512  0.13412625  0.71109793    -0.85900
O715        O  0.51066541  0.15820370  0.75175620    -0.82900
C716        C  0.51887082  0.17920190  0.73377978     0.97600
O717        O  0.53854970  0.17347970  0.71356588    -0.83000
O718        O  0.57107130  0.14221685  0.66948754    -0.85600
C719        C  0.55359349  0.14083420  0.64696881     1.02100
O720        O  0.52829264  0.12764731  0.64906563    -0.78400
O721        O  0.47881362  0.09923315  0.67658895    -0.78500
C722        C  0.46656496  0.12389090  0.68490622     1.02000
Cr723      Cr  0.50181446  0.11489934  0.73902103     1.93700
Cr724      Cr  0.56321849  0.13546611  0.71335028     1.93200
Cr725      Cr  0.52345132  0.09217452  0.67664336     1.39100
O726        O  0.52959517  0.11395387  0.70948321    -1.23600
O727        O  0.52777488  0.82063881  0.74108129    -0.85900
O728        O  0.48777497  0.84235206  0.78361994    -0.82900
C729        C  0.48096492  0.85468771  0.80864725     0.97600
O730        O  0.49176188  0.88054015  0.81463994    -0.83000
O731        O  0.54381649  0.85649199  0.84182043    -0.85600
C732        C  0.57029311  0.84530494  0.84335585     1.02100
O733        O  0.58738229  0.84486120  0.82027446    -0.78400
O734        O  0.56002726  0.80995911  0.77711982    -0.78600
C735        C  0.53957134  0.80146103  0.75911569     1.02100
O736        O  0.54065323  0.88419712  0.72264881    -0.85900
O737        O  0.49483029  0.90462303  0.75922524    -0.82900
C738        C  0.50708029  0.92872914  0.76921148     0.97600
O739        O  0.52821293  0.92703065  0.78838512    -0.83000
O740        O  0.57808028  0.90501855  0.81834381    -0.85600
C741        C  0.60058069  0.90612470  0.80054746     1.02100
O742        O  0.60203083  0.88935987  0.77724312    -0.78400
O743        O  0.57872347  0.85329223  0.73099639    -0.78500
C744        C  0.56743223  0.87553196  0.71668528     1.02000
Cr745      Cr  0.51459083  0.86324234  0.75329920     1.93700
Cr746      Cr  0.53579247  0.89065536  0.81345901     1.93200
Cr747      Cr  0.57936070  0.85042047  0.77632751     1.39100
O748        O  0.54343427  0.86829093  0.78106770    -1.23600
O749        O  0.51833013  0.56997044  0.77691607    -0.85900
O750        O  0.47555327  0.59480965  0.73988743    -0.82900
C751        C  0.45082646  0.60797046  0.73373296     0.97600
O752        O  0.44360520  0.63242313  0.74709679    -0.83000
O753        O  0.41568356  0.60416208  0.79634751    -0.85600
C754        C  0.41451420  0.58973488  0.82115671     1.02100
O755        O  0.43786040  0.58724403  0.83766890    -0.78400
O756        O  0.48225096  0.55546678  0.80769960    -0.78600
C757        C  0.50187569  0.54897590  0.78780364     1.02100
O758        O  0.53518806  0.63206281  0.79576705    -0.85900
O759        O  0.49867019  0.65612438  0.75227782    -0.82900
C760        C  0.49034654  0.67875448  0.76819269     0.97600
O761        O  0.47076969  0.67503119  0.78881193    -0.83000
O762        O  0.43896327  0.64886048  0.83545982    -0.85600
C763        C  0.45598214  0.64678724  0.85839438     1.02100
O764        O  0.48012240  0.63104277  0.85743642    -0.78400
O765        O  0.52678406  0.59755213  0.82977662    -0.78500
C766        C  0.53995620  0.62174201  0.82195275     1.02000
Cr767      Cr  0.50521336  0.61327027  0.76806678     1.93700
Cr768      Cr  0.44466176  0.63862043  0.79193562     1.93200
Cr769      Cr  0.48174597  0.59417544  0.83078175     1.39100
O770        O  0.47693637  0.61522565  0.79703826    -1.23600
O771        O  0.47778132  0.32009715  0.76287479    -0.85900
O772        O  0.51617987  0.34222440  0.72027856    -0.82900
C773        C  0.52156394  0.35362429  0.69465829     0.97600
O774        O  0.51029386  0.37916799  0.68784041    -0.83000
O775        O  0.45750169  0.35469633  0.66316867    -0.85600
C776        C  0.43138778  0.34297839  0.66237042     1.02100
O777        O  0.41450201  0.34346838  0.68552781    -0.78400
O778        O  0.44556794  0.30878107  0.72691584    -0.78600
C779        C  0.46632558  0.30068462  0.74494161     1.02100
O780        O  0.46448508  0.38317414  0.78180458    -0.85900
O781        O  0.50826801  0.40426687  0.74452017    -0.82900
C782        C  0.49462290  0.42805557  0.73547311     0.97600
O783        O  0.47401879  0.42609411  0.71573621    -0.83000
O784        O  0.42361251  0.40340332  0.68780806    -0.85600
C785        C  0.40237291  0.40533148  0.70703060     1.02100
O786        O  0.40169809  0.38806484  0.72999556    -0.78400
O787        O  0.42784956  0.35100561  0.77425547    -0.78500
C788        C  0.43839362  0.37361296  0.78834461     1.02000
Cr789      Cr  0.48984559  0.36272004  0.75070374     1.93700
Cr790      Cr  0.46622772  0.38934276  0.69086817     1.93200
Cr791      Cr  0.42488438  0.34892260  0.72917649     1.39100
O792        O  0.46020448  0.36721778  0.72350968    -1.23600
O793        O  0.28920678  0.52279716  0.86513502    -0.85900
O794        O  0.24096332  0.48995109  0.84449119    -0.82900
C795        C  0.25553779  0.48005619  0.82172815     0.97600
O796        O  0.27323509  0.45786011  0.82492754    -0.83000
O797        O  0.31948008  0.42472402  0.84765489    -0.85600
C798        C  0.34408170  0.43932100  0.84963067     1.02100
O799        O  0.34570192  0.46329449  0.86540580    -0.78400
O800        O  0.32367244  0.51215793  0.89907989    -0.78600
C801        C  0.31494108  0.52761636  0.87656411     1.02100
O802        O  0.27211572  0.50912057  0.92797955    -0.85900
O803        O  0.23034584  0.47016006  0.90696385    -0.82900
C804        C  0.22197801  0.44479926  0.89705544     0.97600
O805        O  0.23285163  0.43400389  0.87254026    -0.83000
O806        O  0.28327606  0.40225479  0.89441320    -0.85600
C807        C  0.30912948  0.39982215  0.90670223     1.02100
O808        O  0.32568081  0.42294967  0.91008183    -0.78400
O809        O  0.29929405  0.47011017  0.94261699    -0.78500
C810        C  0.28168604  0.49193543  0.94901606     1.02000
Cr811      Cr  0.25990880  0.49585028  0.88584907     1.93700
Cr812      Cr  0.27719312  0.43236561  0.86133041     1.93200
Cr813      Cr  0.32091492  0.46719372  0.90312612     1.39100
O814        O  0.28604401  0.46470320  0.88358976    -1.23600
O815        O  0.28639214  0.48506875  0.65882198    -0.85900
O816        O  0.24336291  0.52417206  0.68040484    -0.82900
C817        C  0.26015550  0.53415236  0.70155706     0.97600
O818        O  0.27964426  0.55418888  0.69581961    -0.83000
O819        O  0.32543290  0.58431981  0.66634112    -0.85600
C820        C  0.34825844  0.56675990  0.66573317     1.02100
O821        O  0.34718017  0.54187325  0.65168705    -0.78400
O822        O  0.32208038  0.49160402  0.62476083    -0.78600
C823        C  0.31258057  0.47897809  0.64880928     1.02100
O824        O  0.26678633  0.49634410  0.59605544    -0.85900
O825        O  0.22971739  0.54104116  0.61705351    -0.82900
C826        C  0.22440867  0.56748857  0.62655234     0.97600
O827        O  0.23647851  0.57608849  0.65118715    -0.83000
O828        O  0.28430485  0.60238647  0.62053539    -0.85600
C829        C  0.30762784  0.60226841  0.60395247     1.02100
O830        O  0.32569815  0.57974353  0.60358005    -0.78400
O831        O  0.29707681  0.53107717  0.57833736    -0.78500
C832        C  0.27716757  0.51113646  0.57364565     1.02000
Cr833      Cr  0.25837369  0.51355178  0.63808299     1.93700
Cr834      Cr  0.28151517  0.57675872  0.65725358     1.93200
Cr835      Cr  0.32059055  0.53623465  0.61599020     1.39100
O836        O  0.28703258  0.54228942  0.63705461    -1.23600
O837        O  0.27864977  0.53174946  0.39689874    -0.85900
O838        O  0.23918537  0.49467044  0.42834003    -0.82900
C839        C  0.23117611  0.51266064  0.44947309     0.97600
O840        O  0.21341620  0.53448774  0.44381912    -0.83000
O841        O  0.18736038  0.58180218  0.41263255    -0.85600
C842        C  0.20720986  0.60184787  0.40735779     1.02100
O843        O  0.22908814  0.59679926  0.38941950    -0.78400
O844        O  0.27129477  0.56111474  0.35776301    -0.78600
C845        C  0.28599406  0.55471361  0.38150442     1.02100
O846        O  0.25802020  0.50703709  0.33975342    -0.85900
O847        O  0.21292389  0.47677631  0.36973444    -0.82900
C848        C  0.18729123  0.47509987  0.38257540     0.97600
O849        O  0.18193779  0.49172213  0.40542622    -0.83000
O850        O  0.15794354  0.54014059  0.37256868    -0.85600
C851        C  0.15816189  0.56300757  0.35526812     1.02100
O852        O  0.18265771  0.57707113  0.35044492    -0.78400
O853        O  0.22278991  0.53747488  0.32193882    -0.78500
C854        C  0.24155437  0.51602236  0.31799701     1.02000
Cr855      Cr  0.24544287  0.50457288  0.38373015     1.93700
Cr856      Cr  0.18753343  0.53675535  0.40689244     1.93200
Cr857      Cr  0.22615810  0.56586209  0.35664997     1.39100
O858        O  0.21963964  0.53596539  0.38261887    -1.23600
O859        O  0.22565334  0.51600433  0.15690732    -0.85900
O860        O  0.26406748  0.47223830  0.17826122    -0.82900
C861        C  0.24644634  0.46151433  0.19842458     0.97600
O862        O  0.22579492  0.44329953  0.19077843    -0.83000
O863        O  0.17926857  0.41979074  0.15741011    -0.85600
C864        C  0.16023250  0.44020480  0.16359613     1.02100
O865        O  0.16192536  0.46582171  0.15068238    -0.78400
O866        O  0.19058135  0.51449439  0.12190923    -0.78600
C867        C  0.20106187  0.52595982  0.14593366     1.02100
O868        O  0.24589473  0.50350787  0.09420216    -0.85900
O869        O  0.27907735  0.45569838  0.11475495    -0.82900
C870        C  0.28229373  0.42887567  0.12417875     0.97600
O871        O  0.26800434  0.42072041  0.14749727    -0.83000
O872        O  0.21896053  0.40186086  0.11121840    -0.85600
C873        C  0.19441377  0.40469521  0.09652310     1.02100
O874        O  0.17784497  0.42802030  0.09997669    -0.78400
O875        O  0.21058728  0.47421824  0.07481236    -0.78500
C876        C  0.23308747  0.49156159  0.07130088     1.02000
Cr877      Cr  0.25181448  0.48531463  0.13587394     1.93700
Cr878      Cr  0.22319565  0.42381483  0.15054611     1.93200
Cr879      Cr  0.18754292  0.47011409  0.11322877     1.39100
O880        O  0.22088857  0.45976805  0.13299286    -1.23600
O881        O  0.98401882  0.17341134  0.23527262    -0.85900
O882        O  0.02026749  0.15282718  0.28051527    -0.82900
C883        C  0.02634048  0.14212531  0.30630569     0.97600
O884        O  0.01199696  0.11941468  0.31629867    -0.83000
O885        O  0.96183501  0.15076683  0.33930498    -0.85600
C886        C  0.93757996  0.16633859  0.33773055     1.02100
O887        O  0.92089667  0.16485011  0.31456641    -0.78400
O888        O  0.95217390  0.19152690  0.26889430    -0.78600
C889        C  0.97350860  0.19567924  0.25034723     1.02100
O890        O  0.96524176  0.11007426  0.22343317    -0.85900
O891        O  0.00827708  0.08999144  0.26309218    -0.82900
C892        C  0.99334755  0.06802638  0.27409004     0.97600
O893        O  0.97208584  0.07343697  0.29271489    -0.83000
O894        O  0.92342277  0.10348597  0.31949947    -0.85600
C895        C  0.90092346  0.10424911  0.30176658     1.02100
O896        O  0.90269035  0.11710330  0.27622024    -0.78400
O897        O  0.93054386  0.14537586  0.22736626    -0.78500
C898        C  0.93952992  0.12046934  0.21608254     1.02000
Cr899      Cr  0.99243738  0.13166827  0.25224017     1.93700
Cr900      Cr  0.96722657  0.11302503  0.31435558     1.93200
Cr901      Cr  0.92906342  0.15330451  0.27194222     1.39100
O902        O  0.96278294  0.13263972  0.27969620    -1.23600
O903        O  0.01804281  0.92378144  0.23257718    -0.85900
O904        O  0.97594240  0.89880779  0.26992355    -0.82900
C905        C  0.95066197  0.88703896  0.27630587     0.97600
O906        O  0.94237422  0.86316349  0.26251410    -0.83000
O907        O  0.91293759  0.89401560  0.21748738    -0.85600
C908        C  0.91037572  0.91095512  0.19468404     1.02100
O909        O  0.93250653  0.91531267  0.17677471    -0.78400
O910        O  0.98043118  0.94232943  0.20599224    -0.78600
C911        C  0.00152923  0.94616147  0.22481156     1.02100
O912        O  0.03125929  0.86253811  0.20843105    -0.85900
O913        O  0.99606728  0.83724641  0.25296334    -0.82900
C914        C  0.98593817  0.81575173  0.23670246     0.97600
O915        O  0.96645696  0.82173267  0.21659409    -0.83000
O916        O  0.93336765  0.85202547  0.17274436    -0.85600
C917        C  0.94975083  0.85614008  0.14943856     1.02100
O918        O  0.97312812  0.87240986  0.15045407    -0.78400
O919        O  0.02226451  0.89941516  0.17659483    -0.78500
C920        C  0.03544278  0.87437271  0.18270596     1.02000
Cr921      Cr  0.00349838  0.88067509  0.23918220     1.93700
Cr922      Cr  0.94123992  0.85914037  0.21713221     1.93200
Cr923      Cr  0.97709115  0.90594140  0.17985018     1.39100
O924        O  0.97371897  0.88196860  0.21183825    -1.23600
O925        O  0.01811272  0.66895737  0.25878473    -0.85900
O926        O  0.98332646  0.64274143  0.21495065    -0.82900
C927        C  0.97871892  0.63010651  0.18973261     0.97600
O928        O  0.99303844  0.60605188  0.18328998    -0.83000
O929        O  0.04037704  0.63990019  0.15805722    -0.85600
C930        C  0.06370457  0.65663620  0.15852880     1.02100
O931        O  0.08186920  0.65547553  0.18060343    -0.78400
O932        O  0.05100238  0.68434188  0.22493183    -0.78600
C933        C  0.02919449  0.69004965  0.24252893     1.02100
O934        O  0.03904800  0.60711796  0.27638598    -0.85900
O935        O  0.99875147  0.58190308  0.23694117    -0.82900
C936        C  0.01547332  0.56021795  0.22757122     0.97600
O937        O  0.03652945  0.56519135  0.20863986    -0.83000
O938        O  0.08254141  0.59561567  0.17822355    -0.85600
C939        C  0.10483548  0.59701434  0.19615348     1.02100
O940        O  0.10217247  0.61021217  0.22152984    -0.78400
O941        O  0.07404319  0.64132927  0.26905760    -0.78500
C942        C  0.06417351  0.61870778  0.28364883     1.02000
Cr943      Cr  0.01176510  0.62515304  0.24512487     1.93700
Cr944      Cr  0.03817948  0.60302422  0.18436699     1.93200
Cr945      Cr  0.07484130  0.64629491  0.22403892     1.39100
O946        O  0.04174140  0.62475811  0.21789122    -1.23600
O947        O  0.98915196  0.42043347  0.27223941    -0.85900
O948        O  0.03630886  0.40121831  0.23750769    -0.82900
C949        C  0.06228376  0.39010062  0.23306717     0.97600
O950        O  0.06908961  0.36514128  0.24540310    -0.83000
O951        O  0.09191680  0.39526306  0.29688995    -0.85600
C952        C  0.09005375  0.40954991  0.32186766     1.02100
O953        O  0.06585111  0.40840839  0.33738611    -0.78400
O954        O  0.02115729  0.43594744  0.30633149    -0.78600
C955        C  0.00517531  0.44141453  0.28342388     1.02100
O956        O  0.97566384  0.35704867  0.28635547    -0.85900
O957        O  0.01759031  0.33761187  0.24625618    -0.82900
C958        C  0.02687544  0.31506091  0.26168672     0.97600
O959        O  0.04496297  0.31924039  0.28350601    -0.83000
O960        O  0.07117495  0.34713825  0.33309578    -0.85600
C961        C  0.05353153  0.34763564  0.35567681     1.02100
O962        O  0.02763320  0.36012518  0.35384621    -0.78400
O963        O  0.97875204  0.38835219  0.32504580    -0.78500
C964        C  0.96737683  0.36513999  0.31246676     1.02000
Cr965      Cr  0.00630887  0.37905487  0.26258709     1.93700
Cr966      Cr  0.06687989  0.35796094  0.28974533     1.93200
Cr967      Cr  0.02334527  0.39695718  0.32808389     1.39100
O968        O  0.03213180  0.37774914  0.29383702    -1.23600
O969        O  0.85020844  0.28661426  0.52186772    -0.85900
O970        O  0.82436266  0.24460483  0.48362479    -0.82900
C971        C  0.80251902  0.26162203  0.47592198     0.97600
O972        O  0.80725720  0.28366628  0.45845074    -0.83000
O973        O  0.83696050  0.33086159  0.43023959    -0.85600
C974        C  0.84394686  0.35288829  0.44739191     1.02100
O975        O  0.86234781  0.34965203  0.46904820    -0.78400
O976        O  0.88893525  0.31660346  0.51482572    -0.78600
C977        C  0.86402326  0.31095748  0.52812676     1.02100
O978        O  0.91002791  0.26271656  0.50723733    -0.85900
O979        O  0.88450382  0.22922791  0.46142747    -0.82900
C980        C  0.87305007  0.22618269  0.43535692     0.97600
O981        O  0.84877939  0.24057512  0.42871353    -0.83000
O982        O  0.87731193  0.28852108  0.40289016    -0.85600
C983        C  0.89651351  0.30940702  0.40232004     1.02100
O984        O  0.90292024  0.32458204  0.42578457    -0.78400
O985        O  0.92900980  0.28885350  0.46983738    -0.78500
C986        C  0.93241891  0.26969493  0.49072907     1.02000
Cr987      Cr  0.86724516  0.25771161  0.49176793     1.93700
Cr988      Cr  0.84406523  0.28589370  0.43249455     1.93200
Cr989      Cr  0.89416291  0.31766448  0.46969725     1.39100
O990        O  0.86833698  0.28749311  0.46436713    -1.23600
O991        O  0.64121862  0.28291226  0.47984994    -0.85900
O992        O  0.66100806  0.23656568  0.51559126    -0.82900
C993        C  0.68205729  0.25187034  0.52775605     0.97600
O994        O  0.67584808  0.26973766  0.54926816    -0.83000
O995        O  0.64495765  0.31332606  0.58216982    -0.85600
C996        C  0.64441451  0.33785804  0.56730808     1.02100
O997        O  0.63185783  0.33884466  0.54153748    -0.78400
O998        O  0.60590113  0.31701472  0.48806859    -0.78600
C999        C  0.63076254  0.30930144  0.47574049     1.02100
O1000       O  0.57814286  0.26213481  0.48724496    -0.85900
O1001       O  0.59761334  0.22190861  0.52950127    -0.82900
C1002       C  0.60697883  0.21321095  0.55500087     0.97600
O1003       O  0.63033120  0.22525791  0.56659756    -0.83000
O1004       O  0.59834656  0.27143563  0.59515604    -0.85600
C1005       C  0.58211339  0.29517298  0.59591613     1.02100
O1006       O  0.58322232  0.31450670  0.57486316    -0.78400
O1007       O  0.55855913  0.28953259  0.52378626    -0.78500
C1008       C  0.55505588  0.27133568  0.50191579     1.02000
Cr1009     Cr  0.61940150  0.25256978  0.50508768     1.93700
Cr1010     Cr  0.63623593  0.27022509  0.57062390     1.93200
Cr1011     Cr  0.59632548  0.31253913  0.53204401     1.39100
O1012       O  0.61728027  0.27861486  0.53608349    -1.23600
O1013       O  0.38608788  0.27179933  0.53899666    -0.85900
O1014       O  0.40749623  0.24038837  0.49020926    -0.82900
C1015       C  0.43100314  0.22880335  0.50224977     0.97600
O1016       O  0.42825575  0.20664441  0.52014677    -0.83000
O1017       O  0.40382533  0.17292270  0.56627758    -0.85600
C1018       C  0.40433283  0.18849344  0.59037144     1.02100
O1019       O  0.38733132  0.21148808  0.59354886    -0.78400
O1020       O  0.35354377  0.26071540  0.57470693    -0.78600
C1021       C  0.37658456  0.27525798  0.56572708     1.02100
O1022       O  0.32342021  0.25787161  0.52191870    -0.85900
O1023       O  0.34524216  0.21948988  0.47882732    -0.82900
C1024       C  0.35674131  0.19511489  0.46902372     0.97600
O1025       O  0.38128799  0.18497420  0.48001672    -0.83000
O1026       O  0.35583814  0.15340733  0.52837583    -0.85600
C1027       C  0.34353046  0.14969523  0.55404402     1.02100
O1028       O  0.34236834  0.17124148  0.57299420    -0.78400
O1029       O  0.30932920  0.21891665  0.54906998    -0.78500
C1030       C  0.30259832  0.24045692  0.53144647     1.02000
Cr1031     Cr  0.36575869  0.24534677  0.50914804     1.93700
Cr1032     Cr  0.39070370  0.18197518  0.52423110     1.93200
Cr1033     Cr  0.34928808  0.21571199  0.56985492     1.39100
O1034       O  0.36867333  0.21416738  0.53450832    -1.23600
O1035       O  0.09368261  0.26768093  0.47480047    -0.85900
O1036       O  0.07250157  0.22517434  0.51306512    -0.82900
C1037       C  0.05236621  0.21456292  0.49535023     0.97600
O1038       O  0.06016980  0.19574258  0.47538318    -0.83000
O1039       O  0.09124604  0.17332887  0.42743404    -0.85600
C1040       C  0.09028309  0.19285420  0.40640288     1.02100
O1041       O  0.10236310  0.21864590  0.40993664    -0.78400
O1042       O  0.12988383  0.26637225  0.44094846    -0.78600
C1043       C  0.10508972  0.27741133  0.45061134     1.02100
O1044       O  0.15703092  0.25589444  0.49449135    -0.85900
O1045       O  0.13625429  0.20933112  0.52740658    -0.82900
C1046       C  0.12730349  0.18267386  0.53166601     0.97600
O1047       O  0.10546189  0.17213004  0.51638347    -0.83000
O1048       O  0.13864453  0.15331859  0.46598641    -0.85600
C1049       C  0.15161334  0.15534657  0.44048617     1.02100
O1050       O  0.15110742  0.18008381  0.42597414    -0.78400
O1051       O  0.17655333  0.22494949  0.46052931    -0.78500
C1052       C  0.18003400  0.24278916  0.48261773     1.02000
Cr1053     Cr  0.11503646  0.23785396  0.50044334     1.93700
Cr1054     Cr  0.10007036  0.17620429  0.47160998     1.93200
Cr1055     Cr  0.13866770  0.22212264  0.43678691     1.39100
O1056       O  0.11800743  0.21191970  0.46957018    -1.23600
C1057       C  0.21546637  0.24217648  0.52663821    -0.20800
C1058       C  0.21110255  0.24689731  0.49540855    -0.07400
C1059       C  0.23688207  0.25176606  0.47674001     0.13500
C1060       C  0.26617248  0.25114829  0.48961214    -0.20900
C1061       C  0.27070085  0.24455487  0.52049896    -0.07400
C1062       C  0.24486231  0.24029332  0.53930237     0.13500
C1063       C  0.24802248  0.23378176  0.57271135    -0.24200
H1064       H  0.19578758  0.23827452  0.54095642     0.14700
H1065       H  0.28582060  0.25440620  0.47508319     0.14800
C1066       C  0.23369513  0.25767741  0.44319545    -0.24200
H1067       H  0.22553362  0.23273797  0.58420241     0.05000
H1068       H  0.26149041  0.25199316  0.58371475     0.08200
H1069       H  0.25943409  0.21150639  0.57611394     0.08200
H1070       H  0.21846445  0.27752474  0.43948488     0.08200
H1071       H  0.22419883  0.23743580  0.43164247     0.08200
H1072       H  0.25597975  0.26266625  0.43241345     0.05000
C1073       C  0.49960559  0.28159348  0.49944894    -0.20800
C1074       C  0.52356604  0.26103926  0.49436475    -0.07400
C1075       C  0.51627597  0.23064601  0.48642083     0.13500
C1076       C  0.48574119  0.22090644  0.48829639    -0.20900
C1077       C  0.46200682  0.24113251  0.49581216    -0.07400
C1078       C  0.46907523  0.27230460  0.49958170     0.13500
C1079       C  0.44505151  0.29589033  0.50595065    -0.24200
H1080       H  0.50492180  0.30506605  0.50463206     0.14700
H1081       H  0.48038987  0.19720769  0.48436066     0.14800
C1082       C  0.54034601  0.20805000  0.47693751    -0.24200
H1083       H  0.45459654  0.31920927  0.50625317     0.05000
H1084       H  0.43524673  0.29180981  0.52861216     0.08200
H1085       H  0.42719231  0.29531590  0.48821681     0.08200
H1086       H  0.55673257  0.20426754  0.49552777     0.08200
H1087       H  0.55253387  0.21657393  0.45659003     0.08200
H1088       H  0.53037185  0.18566882  0.47104442     0.05000
C1089       C  0.97011481  0.23249552  0.47273817    -0.20800
C1090       C  0.96196242  0.25411032  0.49449725    -0.07400
C1091       C  0.98220738  0.26076413  0.51832136     0.13500
C1092       C  0.01101202  0.24649230  0.51898381    -0.20900
C1093       C  0.01991947  0.22535560  0.49649499    -0.07400
C1094       C  0.99837942  0.21761808  0.47349189     0.13500
C1095       C  0.00466107  0.19450433  0.44880488    -0.24200
H1096       H  0.95427808  0.22764010  0.45455332     0.14700
H1097       H  0.02692752  0.25260056  0.53668143     0.14800
C1098       C  0.97375723  0.28367672  0.54234815    -0.24200
H1099       H  0.98464139  0.19102041  0.43387370     0.05000
H1100       H  0.01026812  0.17215665  0.45908450     0.08200
H1101       H  0.02354207  0.20226832  0.43401217     0.08200
H1102       H  0.95306706  0.27604633  0.55459902     0.08200
H1103       H  0.96911231  0.30604638  0.53163657     0.08200
H1104       H  0.99226220  0.28663167  0.55919809     0.05000
C1105       C  0.76844793  0.25540897  0.52015216    -0.20800
C1106       C  0.77179247  0.25622925  0.48850009    -0.07400
C1107       C  0.74590837  0.25266120  0.46994593     0.13500
C1108       C  0.71718306  0.24920559  0.48360620    -0.20900
C1109       C  0.71349812  0.25045913  0.51531312    -0.07400
C1110       C  0.73964512  0.25309642  0.53383649     0.13500
C1111       C  0.73753348  0.25306709  0.56799165    -0.24200
H1112       H  0.78846149  0.25769132  0.53427845     0.14700
H1113       H  0.69729934  0.24672452  0.46938799     0.14800
C1114       C  0.74855185  0.25213509  0.43584019    -0.24200
H1115       H  0.76038744  0.25321811  0.57869207     0.05000
H1116       H  0.72549239  0.23235801  0.57575435     0.08200
H1117       H  0.72522355  0.27361076  0.57607166     0.08200
H1118       H  0.76438216  0.23369358  0.42873958     0.08200
H1119       H  0.75723617  0.27425907  0.42755312     0.08200
H1120       H  0.72623025  0.24803726  0.42485208     0.05000
C1121       C  0.04587396  0.31824964  0.40340939    -0.20800
C1122       C  0.06516779  0.33486071  0.38438776    -0.07400
C1123       C  0.09640949  0.33756981  0.39214536     0.13500
C1124       C  0.10804851  0.32050946  0.41605207    -0.20900
C1125       C  0.08960088  0.30078910  0.43247013    -0.07400
C1126       C  0.05781779  0.30058099  0.42712302     0.13500
C1127       C  0.03673430  0.28029181  0.44468800    -0.24200
H1128       H  0.02175516  0.31767816  0.39875973     0.14700
H1129       H  0.13218434  0.32139480  0.42101837     0.14800
C1130       C  0.11783775  0.35884779  0.37607703    -0.24200
H1131       H  0.01281978  0.28238781  0.43683772     0.05000
H1132       H  0.03731470  0.28646997  0.46911152     0.08200
H1133       H  0.04388674  0.25626586  0.44170014     0.08200
H1134       H  0.10828874  0.38210119  0.37729016     0.08200
H1135       H  0.12164006  0.35181579  0.35220213     0.08200
H1136       H  0.14057759  0.35947984  0.38699440     0.05000
C1137       C  0.91653903  0.35573698  0.33445831    -0.20800
C1138       C  0.94649510  0.34595222  0.32970059    -0.07400
C1139       C  0.95699071  0.31891935  0.34380565     0.13500
C1140       C  0.93944735  0.30591738  0.36678451    -0.20900
C1141       C  0.91074983  0.31767201  0.37360835    -0.07400
C1142       C  0.89783374  0.34039867  0.35510055     0.13500
C1143       C  0.86434883  0.34756219  0.35655029    -0.24200
H1144       H  0.90786432  0.37518841  0.32207233     0.14700
H1145       H  0.94850400  0.28713471  0.37994760     0.14800
C1146       C  0.98645595  0.30337796  0.33556199    -0.24200
H1147       H  0.85811893  0.36659396  0.34120354     0.05000
H1148       H  0.85742392  0.35359530  0.37989092     0.08200
H1149       H  0.85133377  0.32717408  0.34956950     0.08200
H1150       H  0.00080552  0.30047841  0.35591572     0.08200
H1151       H  0.99961399  0.31606828  0.31854510     0.08200
H1152       H  0.98156944  0.28050556  0.32611885     0.05000
C1153       C  0.98132110  0.48604549  0.25708923    -0.20800
C1154       C  0.00742837  0.47168593  0.26866466    -0.07400
C1155       C  0.03613452  0.48585216  0.26469224     0.13500
C1156       C  0.03775246  0.51420083  0.25037728    -0.20900
C1157       C  0.01160625  0.52923599  0.24014711    -0.07400
C1158       C  0.98301495  0.51485638  0.24315886     0.13500
C1159       C  0.95447766  0.52935921  0.23093374    -0.24200
H1160       H  0.95950759  0.47491169  0.25937333     0.14700
H1161       H  0.05966694  0.52511567  0.24776679     0.14800
C1162       C  0.06550011  0.47089960  0.27446894    -0.24200
H1163       H  0.93441646  0.51440206  0.23389626     0.05000
H1164       H  0.95725943  0.53396359  0.20630520     0.08200
H1165       H  0.94971673  0.55098077  0.24306640     0.08200
H1166       H  0.06770929  0.44819514  0.26380051     0.08200
H1167       H  0.06603013  0.46852458  0.29950199     0.08200
H1168       H  0.08572524  0.48433880  0.26769188     0.05000
C1169       C  0.01809230  0.74013679  0.26828773    -0.20800
C1170       C  0.01627581  0.72149625  0.24242736    -0.07400
C1171       C  0.00434725  0.73403438  0.21532897     0.13500
C1172       C  0.99460165  0.76442634  0.21470959    -0.20900
C1173       C  0.99679656  0.78350085  0.24021093    -0.07400
C1174       C  0.00888101  0.77106652  0.26745303     0.13500
C1175       C  0.01196494  0.79002041  0.29574567    -0.24200
H1176       H  0.02758604  0.73072059  0.28893686     0.14700
H1177       H  0.98555152  0.77351007  0.19370678     0.14800
C1178       C  0.00095143  0.71524895  0.18692382    -0.24200
H1179       H  0.98944259  0.79950698  0.30234049     0.05000
H1180       H  0.02821509  0.80880401  0.29168295     0.08200
H1181       H  0.02071444  0.77643077  0.31510656     0.08200
H1182       H  0.98624685  0.69573171  0.19191715     0.08200
H1183       H  0.02325348  0.70680186  0.17883744     0.08200
H1184       H  0.99034536  0.72828810  0.16810980     0.05000
C1185       C  0.88901665  0.22153919  0.38188969    -0.20800
C1186       C  0.89000425  0.20939193  0.41129207    -0.07400
C1187       C  0.90976830  0.18450420  0.41709631     0.13500
C1188       C  0.92729592  0.17218666  0.39313628    -0.20900
C1189       C  0.92572504  0.18429826  0.36368089    -0.07400
C1190       C  0.90737314  0.21029395  0.35848292     0.13500
C1191       C  0.90738344  0.22693959  0.32846308    -0.24200
H1192       H  0.87394313  0.24034968  0.37699586     0.14700
H1193       H  0.94100990  0.15204289  0.39705365     0.14800
C1194       C  0.91105362  0.16955984  0.44782132    -0.24200
H1195       H  0.89503318  0.24898351  0.33002169     0.05000
H1196       H  0.89596006  0.21340388  0.31062573     0.08200
H1197       H  0.93113386  0.23192854  0.32149216     0.08200
H1198       H  0.88788812  0.16229906  0.45468057     0.08200
H1199       H  0.92022163  0.18544638  0.46501231     0.08200
H1200       H  0.92602495  0.14915261  0.44762801     0.05000
C1201       C  0.99855409  0.98091520  0.26931370    -0.20800
C1202       C  0.00564253  0.97678470  0.23849655    -0.07400
C1203       C  0.01226939  0.00252407  0.22063012     0.13500
C1204       C  0.01027651  0.03175588  0.23361699    -0.20900
C1205       C  0.00010308  0.03620981  0.26367389    -0.07400
C1206       C  0.99510438  0.01020526  0.28200769     0.13500
C1207       C  0.98628432  0.01297874  0.31496937    -0.24200
H1208       H  0.99405428  0.96110627  0.28315364     0.14700
H1209       H  0.01483000  0.05137759  0.21951124     0.14800
C1210       C  0.02123789  0.99916253  0.18776130    -0.24200
H1211       H  0.98534571  0.99043397  0.32623160     0.05000
H1212       H  0.96338938  0.02347288  0.31711877     0.08200
H1213       H  0.00325531  0.02703386  0.32715739     0.08200
H1214       H  0.00244334  0.98864790  0.17473997     0.08200
H1215       H  0.04184696  0.98457181  0.18593657     0.08200
H1216       H  0.02639901  0.02146347  0.17721331     0.05000
C1217       C  0.01878009  0.22879406  0.25428354    -0.20800
C1218       C  0.98755402  0.22620790  0.24822921    -0.07400
C1219       C  0.97002141  0.25292920  0.24446345     0.13500
C1220       C  0.98402594  0.28146288  0.24728536    -0.20900
C1221       C  0.01488488  0.28412953  0.25516227    -0.07400
C1222       C  0.03252720  0.25730904  0.25855653     0.13500
C1223       C  0.06575471  0.25841927  0.26680671    -0.24200
H1224       H  0.03217579  0.20831227  0.25742764     0.14700
H1225       H  0.97035217  0.30187449  0.24481832     0.14800
C1226       C  0.93652896  0.25146327  0.23747915    -0.24200
H1227       H  0.07629297  0.23541971  0.26676862     0.05000
H1228       H  0.06850551  0.26792917  0.28997613     0.08200
H1229       H  0.07823075  0.27264455  0.25017260     0.08200
H1230       H  0.92409966  0.24080329  0.25660960     0.08200
H1231       H  0.93292563  0.23795630  0.21649353     0.08200
H1232       H  0.92660553  0.27444055  0.23390089     0.05000
C1233       C  0.04560456  0.18807567  0.33236136    -0.20800
C1234       C  0.04865559  0.15677659  0.32629007    -0.07400
C1235       C  0.06869582  0.13907248  0.34386707     0.13500
C1236       C  0.08242271  0.15216617  0.36915372    -0.20900
C1237       C  0.07764650  0.18283322  0.37694455    -0.07400
C1238       C  0.06007922  0.20145469  0.35754649     0.13500
C1239       C  0.05486622  0.23463724  0.36433555    -0.24200
H1240       H  0.03016486  0.20159570  0.31871118     0.14700
H1241       H  0.09617246  0.13782974  0.38366048     0.14800
C1242       C  0.07560126  0.10628218  0.33621625    -0.24200
H1243       H  0.03977854  0.24547827  0.34724555     0.05000
H1244       H  0.07687135  0.24688437  0.36408460     0.08200
H1245       H  0.04401127  0.23723264  0.38696944     0.08200
H1246       H  0.08377638  0.10462026  0.31239738     0.08200
H1247       H  0.05511116  0.09200339  0.33911709     0.08200
H1248       H  0.09361963  0.09673387  0.35111203     0.05000
C1249       C  0.10579456  0.44254586  0.17928008    -0.20800
C1250       C  0.13548383  0.43181286  0.18444520    -0.07400
C1251       C  0.14058117  0.40945775  0.20710956     0.13500
C1252       C  0.11593185  0.39733580  0.22233556    -0.20900
C1253       C  0.08606927  0.40615020  0.21582865    -0.07400
C1254       C  0.08080708  0.42988974  0.19476449     0.13500
C1255       C  0.04922972  0.44115892  0.18763647    -0.24200
H1256       H  0.10198731  0.45965534  0.16201315     0.14700
H1257       H  0.12025815  0.38012703  0.23938564     0.14800
C1258       C  0.17171572  0.39735537  0.21563872    -0.24200
H1259       H  0.04947204  0.45903187  0.16986422     0.05000
H1260       H  0.03865198  0.45116364  0.20825465     0.08200
H1261       H  0.03510384  0.42206473  0.17928730     0.08200
H1262       H  0.18679307  0.41629771  0.22176972     0.08200
H1263       H  0.18175718  0.38368609  0.19695777     0.08200
H1264       H  0.17087692  0.38204467  0.23563934     0.05000
C1265       C  0.14855606  0.56236656  0.20377182    -0.20800
C1266       C  0.13409213  0.58411799  0.18582961    -0.07400
C1267       C  0.14587027  0.59069891  0.15656649     0.13500
C1268       C  0.16977769  0.57294834  0.14481279    -0.20900
C1269       C  0.18260361  0.54931730  0.16181912    -0.07400
C1270       C  0.17256973  0.54480705  0.19199264     0.13500
C1271       C  0.18553995  0.51997867  0.21109296    -0.24200
H1272       H  0.13968106  0.55766443  0.22626535     0.14700
H1273       H  0.17758228  0.57661531  0.12174696     0.14800
C1274       C  0.13333891  0.61635655  0.13758888    -0.24200
H1275       H  0.17412277  0.51883783  0.23350751     0.05000
H1276       H  0.21008217  0.52437353  0.21475828     0.08200
H1277       H  0.18241165  0.49778802  0.19957212     0.08200
H1278       H  0.13465354  0.63797330  0.15054013     0.08200
H1279       H  0.10940803  0.61187444  0.13120784     0.08200
H1280       H  0.14645643  0.61930088  0.11622155     0.05000
C1281       C  0.08398718  0.57301503  0.31108072    -0.20800
C1282       C  0.08348854  0.60489234  0.30770380    -0.07400
C1283       C  0.10463001  0.62241778  0.32423867     0.13500
C1284       C  0.12747670  0.60769506  0.34080955    -0.20900
C1285       C  0.12991126  0.57588455  0.34179560    -0.07400
C1286       C  0.10693231  0.55829738  0.32809352     0.13500
C1287       C  0.10730732  0.52420022  0.33012471    -0.24200
H1288       H  0.06752709  0.55944070  0.29888172     0.14700
H1289       H  0.14434259  0.62126360  0.35230565     0.14800
C1290       C  0.10352247  0.65669596  0.32452457    -0.24200
H1291       H  0.08786251  0.51417846  0.31779186     0.05000
H1292       H  0.10546284  0.51720222  0.35422028     0.08200
H1293       H  0.12868814  0.51498129  0.32022858     0.08200
H1294       H  0.08035765  0.66461097  0.33094773     0.08200
H1295       H  0.10990608  0.66596487  0.30202931     0.08200
H1296       H  0.11974576  0.66625870  0.34113463     0.05000
C1297       C  0.22054628  0.47209295  0.24736129    -0.20800
C1298       C  0.24790975  0.47191865  0.23070803    -0.07400
C1299       C  0.27427221  0.48421229  0.24445736     0.13500
C1300       C  0.27193356  0.49773773  0.27347112    -0.20900
C1301       C  0.24368694  0.50067242  0.28820804    -0.07400
C1302       C  0.21771994  0.48770928  0.27491872     0.13500
C1303       C  0.18669272  0.49114521  0.28923676    -0.24200
H1304       H  0.20023354  0.46268733  0.23742147     0.14700
H1305       H  0.29198938  0.50708447  0.28419138     0.14800
C1306       C  0.30490920  0.48264685  0.22915342    -0.24200
H1307       H  0.16915865  0.47761105  0.27723148     0.05000
H1308       H  0.17955966  0.51536686  0.28873745     0.08200
H1309       H  0.18747486  0.48372826  0.31311897     0.08200
H1310       H  0.30491295  0.49676080  0.20832099     0.08200
H1311       H  0.31042472  0.45869886  0.22324402     0.08200
H1312       H  0.32321977  0.49129816  0.24414085     0.05000
C1313       C  0.10942497  0.44451570  0.36126637    -0.20800
C1314       C  0.11606835  0.42648848  0.33561230    -0.07400
C1315       C  0.14693818  0.42235340  0.32730138     0.13500
C1316       C  0.16982279  0.43670428  0.34442946    -0.20900
C1317       C  0.16289182  0.45555197  0.36947392    -0.07400
C1318       C  0.13206676  0.45829928  0.37866122     0.13500
C1319       C  0.12219565  0.47537082  0.40685041    -0.24200
H1320       H  0.08599382  0.44761122  0.36833338     0.14700
H1321       H  0.19334527  0.43392447  0.33750805     0.14800
C1322       C  0.15612787  0.40308275  0.30054188    -0.24200
H1323       H  0.09739750  0.47327691  0.41118226     0.05000
H1324       H  0.12697068  0.49995363  0.40451746     0.08200
H1325       H  0.13411449  0.46600226  0.42699275     0.08200
H1326       H  0.14599768  0.41271423  0.27961234     0.08200
H1327       H  0.14831118  0.37936968  0.30384729     0.08200
H1328       H  0.18119590  0.40247270  0.29736575     0.05000
C1329       C  0.28194305  0.52208607  0.51855756    -0.20800
C1330       C  0.26611049  0.50667733  0.54158716    -0.07400
C1331       C  0.23942265  0.49050833  0.53326056     0.13500
C1332       C  0.22862853  0.49210750  0.50293114    -0.20900
C1333       C  0.24387654  0.50920991  0.48069857    -0.07400
C1334       C  0.27089077  0.52417526  0.48887136     0.13500
C1335       C  0.28845651  0.54237885  0.46617165    -0.24200
H1336       H  0.30322425  0.53312671  0.52378509     0.14700
H1337       H  0.20798088  0.48034212  0.49665185     0.14800
C1338       C  0.22226794  0.47145217  0.55584549    -0.24200
H1339       H  0.30851935  0.55366724  0.47641344     0.05000
H1340       H  0.27374697  0.56023427  0.45603898     0.08200
H1341       H  0.29669546  0.52657361  0.44846424     0.08200
H1342       H  0.21385619  0.48569560  0.57489330     0.08200
H1343       H  0.23745162  0.45336061  0.56481970     0.08200
H1344       H  0.20228829  0.46027768  0.54533029     0.05000
C1345       C  0.23962385  0.50237192  0.98549850    -0.20800
C1346       C  0.27073881  0.49643302  0.98076608    -0.07400
C1347       C  0.28981254  0.49266368  0.00634362     0.13500
C1348       C  0.27702773  0.49342157  0.03569476    -0.20900
C1349       C  0.24554031  0.49661626  0.04024312    -0.07400
C1350       C  0.22670295  0.50192293  0.01478137     0.13500
C1351       C  0.19302522  0.50741844  0.01833312    -0.24200
H1352       H  0.22497487  0.50563254  0.96600245     0.14700
H1353       H  0.29153465  0.49010005  0.05520120     0.14800
C1354       C  0.32365093  0.48812594  0.00292356    -0.24200
H1355       H  0.18212043  0.51301161  0.99630710     0.05000
H1356       H  0.18904043  0.52676235  0.03409327     0.08200
H1357       H  0.18178408  0.48680530  0.02733008     0.08200
H1358       H  0.33343882  0.50715453  0.98963105     0.08200
H1359       H  0.32853154  0.46628498  0.99124693     0.08200
H1360       H  0.33524852  0.48743833  0.02529001     0.05000
C1361       C  0.28288358  0.49839282  0.77659580    -0.20800
C1362       C  0.25486485  0.49545009  0.79165394    -0.07400
C1363       C  0.22820339  0.50633518  0.77730067     0.13500
C1364       C  0.23022278  0.51875106  0.74774564    -0.20900
C1365       C  0.25840428  0.52145889  0.73277845    -0.07400
C1366       C  0.28509691  0.51135828  0.74768915     0.13500
C1367       C  0.31602104  0.51283116  0.73278236    -0.24200
H1368       H  0.30344404  0.49041060  0.78764840     0.14700
H1369       H  0.20981306  0.52660746  0.73639308     0.14800
C1370       C  0.19768646  0.50416581  0.79263942    -0.24200
H1371       H  0.33413304  0.50280363  0.74724835     0.05000
H1372       H  0.32233742  0.53671806  0.72812408     0.08200
H1373       H  0.31564983  0.50004421  0.71117790     0.08200
H1374       H  0.19770121  0.51781864  0.81384795     0.08200
H1375       H  0.19271798  0.48008403  0.79815181     0.08200
H1376       H  0.17914961  0.51293186  0.77791548     0.05000
C1377       C  0.43571590  0.30527702  0.62076141    -0.20800
C1378       C  0.41945012  0.32907882  0.63439273    -0.07400
C1379       C  0.39042123  0.33720705  0.62302541     0.13500
C1380       C  0.37749572  0.31993337  0.59963214    -0.20900
C1381       C  0.39300840  0.29506936  0.58707717    -0.07400
C1382       C  0.42281860  0.28792837  0.59737369     0.13500
C1383       C  0.44112478  0.26124213  0.58570240    -0.24200
H1384       H  0.45792682  0.29907915  0.62955421     0.14700
H1385       H  0.35486376  0.32543201  0.59152557     0.14800
C1386       C  0.37305985  0.36423319  0.63533299    -0.24200
H1387       H  0.46297447  0.26940587  0.57611618     0.05000
H1388       H  0.42936708  0.24822103  0.56780825     0.08200
H1389       H  0.44613567  0.24544070  0.60470649     0.08200
H1390       H  0.38722623  0.38497061  0.63347577     0.08200
H1391       H  0.36680164  0.36047783  0.65942424     0.08200
H1392       H  0.35166906  0.36832857  0.62257653     0.05000
C1393       C  0.34765101  0.41621219  0.69776492    -0.20800
C1394       C  0.37769416  0.42675660  0.69967800    -0.07400
C1395       C  0.38510482  0.45530932  0.68715067     0.13500
C1396       C  0.36335349  0.47096889  0.67028735    -0.20900
C1397       C  0.33378155  0.45986171  0.66664220    -0.07400
C1398       C  0.32537420  0.43272605  0.68161830     0.13500
C1399       C  0.29366679  0.42026604  0.67913496    -0.24200
H1400       H  0.34211665  0.39416998  0.70716729     0.14700
H1401       H  0.36981909  0.49200252  0.65953529     0.14800
C1402       C  0.41623915  0.46922807  0.69094492    -0.24200
H1403       H  0.29150875  0.39807801  0.69091166     0.05000
H1404       H  0.28776752  0.41687220  0.65487300     0.08200
H1405       H  0.27718621  0.43629949  0.68970129     0.08200
H1406       H  0.43359321  0.45636105  0.67787837     0.08200
H1407       H  0.42249189  0.46947145  0.71534593     0.08200
H1408       H  0.41692472  0.49295793  0.68248437     0.05000
C1409       C  0.41850571  0.42260289  0.80814124    -0.20800
C1410       C  0.41865916  0.39057248  0.80954755    -0.07400
C1411       C  0.39645541  0.37561902  0.82702930     0.13500
C1412       C  0.37298255  0.39269542  0.83992598    -0.20900
C1413       C  0.37145492  0.42446980  0.83689335    -0.07400
C1414       C  0.39517280  0.43985290  0.82189547     0.13500
C1415       C  0.39502212  0.47394532  0.81879165    -0.24200
H1416       H  0.43554422  0.43407130  0.79461734     0.14700
H1417       H  0.35511123  0.38087055  0.85196835     0.14800
C1418       C  0.39722841  0.34171654  0.83227793    -0.24200
H1419       H  0.41480434  0.48205390  0.80536644     0.05000
H1420       H  0.39616146  0.48466921  0.84158291     0.08200
H1421       H  0.37391929  0.48150771  0.80716289     0.08200
H1422       H  0.41982486  0.33492572  0.84128697     0.08200
H1423       H  0.39261762  0.32923427  0.81092356     0.08200
H1424       H  0.37975077  0.33458959  0.84904506     0.05000
C1425       C  0.52418765  0.33633684  0.64197807    -0.20800
C1426       C  0.53737005  0.33591199  0.67090136    -0.07400
C1427       C  0.56323511  0.31747062  0.67613458     0.13500
C1428       C  0.57632116  0.30152529  0.65156596    -0.20900
C1429       C  0.56345874  0.30316401  0.62242061    -0.07400
C1430       C  0.53595954  0.31920861  0.61813542     0.13500
C1431       C  0.51878347  0.31848761  0.58842455    -0.24200
H1432       H  0.50457575  0.35043991  0.63761420     0.14700
H1433       H  0.59759316  0.28938464  0.65468535     0.14800
C1434       C  0.57813100  0.31614591  0.70683284    -0.24200
H1435       H  0.49596160  0.32924463  0.59057679     0.05000
H1436       H  0.51540253  0.29455970  0.58119896     0.08200
H1437       H  0.53112880  0.33101604  0.57046304     0.08200
H1438       H  0.56228861  0.30607413  0.72363788     0.08200
H1439       H  0.58446061  0.33940761  0.71421274     0.08200
H1440       H  0.59909431  0.30195405  0.70640035     0.05000
C1441       C  0.38370266  0.57636584  0.86566303    -0.20800
C1442       C  0.38573296  0.57769745  0.83381515    -0.07400
C1443       C  0.36109038  0.56712738  0.81627414     0.13500
C1444       C  0.33662830  0.55278217  0.83105603    -0.20900
C1445       C  0.33609819  0.54954107  0.86284703    -0.07400
C1446       C  0.35894924  0.56340192  0.88039037     0.13500
C1447       C  0.35764737  0.56474045  0.91466195    -0.24200
H1448       H  0.40218142  0.58473822  0.87947951     0.14700
H1449       H  0.31879477  0.54250607  0.81761805     0.14800
C1450       C  0.36108035  0.56929682  0.78222151    -0.24200
H1451       H  0.37543410  0.57991385  0.92405051     0.05000
H1452       H  0.36150891  0.54195017  0.92464843     0.08200
H1453       H  0.33521822  0.57384941  0.92206468     0.08200
H1454       H  0.38057260  0.55628493  0.77279972     0.08200
H1455       H  0.36253452  0.59342454  0.77510879     0.08200
H1456       H  0.33989016  0.55990645  0.77251476     0.05000
C1457       C  0.51133172  0.51265189  0.74510515    -0.20800
C1458       C  0.50454199  0.51707623  0.77605239    -0.07400
C1459       C  0.49801654  0.49115937  0.79408437     0.13500
C1460       C  0.49736069  0.46212073  0.78049541    -0.20900
C1461       C  0.50153949  0.45823843  0.74912449    -0.07400
C1462       C  0.50903748  0.48381703  0.73130862     0.13500
C1463       C  0.51451008  0.48078461  0.69767809    -0.24200
H1464       H  0.51654719  0.53220499  0.73113618     0.14700
H1465       H  0.49184864  0.44247147  0.79421122     0.14800
C1466       C  0.49162989  0.49372412  0.82763867    -0.24200
H1467       H  0.52118505  0.50276728  0.68732465     0.05000
H1468       H  0.49348229  0.47302050  0.68622784     0.08200
H1469       H  0.53307867  0.46409602  0.69345954     0.08200
H1470       H  0.47001584  0.50625994  0.83155963     0.08200
H1471       H  0.51064019  0.50566512  0.83904466     0.08200
H1472       H  0.48918368  0.47104516  0.83838649     0.05000
C1473       C  0.39235332  0.55573765  0.69921473    -0.20800
C1474       C  0.37677961  0.57628540  0.68050518    -0.07400
C1475       C  0.38868009  0.60578594  0.67619099     0.13500
C1476       C  0.41458150  0.61467570  0.69211552    -0.20900
C1477       C  0.42912335  0.59482370  0.71212777    -0.07400
C1478       C  0.41847457  0.56467631  0.71516867     0.13500
C1479       C  0.43362047  0.54241662  0.73627064    -0.24200
H1480       H  0.38329688  0.53310297  0.70235226     0.14700
H1481       H  0.42287978  0.63773895  0.68988541     0.14800
C1482       C  0.37420351  0.62815708  0.65492674    -0.24200
H1483       H  0.42127563  0.52051551  0.73726642     0.05000
H1484       H  0.43448830  0.55180251  0.75964930     0.08200
H1485       H  0.45701875  0.53781243  0.72807858     0.08200
H1486       H  0.35136710  0.63445346  0.66365949     0.08200
H1487       H  0.37250244  0.61788523  0.63197080     0.08200
H1488       H  0.38760434  0.64939573  0.65290537     0.05000
C1489       C  0.52419278  0.75205558  0.73439439    -0.20800
C1490       C  0.52828871  0.76950947  0.76085184    -0.07400
C1491       C  0.52061763  0.75644425  0.78923830     0.13500
C1492       C  0.50813654  0.72719727  0.79037223    -0.20900
C1493       C  0.50403087  0.70957865  0.76413366    -0.07400
C1494       C  0.51294355  0.72195424  0.73576055     0.13500
C1495       C  0.51014982  0.70386793  0.70688391    -0.24200
H1496       H  0.53026543  0.76182726  0.71265805     0.14700
H1497       H  0.50198802  0.71771871  0.81223824     0.14800
C1498       C  0.52470310  0.77344257  0.81865812    -0.24200
H1499       H  0.51713836  0.71730622  0.68674077     0.05000
H1500       H  0.48619199  0.69672953  0.70363757     0.08200
H1501       H  0.52507639  0.68348125  0.70798765     0.08200
H1502       H  0.51223478  0.79537241  0.81776409     0.08200
H1503       H  0.54921319  0.77764498  0.82277399     0.08200
H1504       H  0.51588410  0.76045420  0.83838346     0.05000
C1505       C  0.60615968  0.16547203  0.58408023    -0.20800
C1506       C  0.59005635  0.19027583  0.57242939    -0.07400
C1507       C  0.55954488  0.19542174  0.58177836     0.13500
C1508       C  0.54701219  0.17730122  0.60479390    -0.20900
C1509       C  0.56419414  0.15419434  0.61826374    -0.07400
C1510       C  0.59343973  0.14704836  0.60660147     0.13500
C1511       C  0.61143565  0.12014134  0.61794576    -0.24200
H1512       H  0.62926573  0.16129203  0.57641343     0.14700
H1513       H  0.52453353  0.18244652  0.61365614     0.14800
C1514       C  0.54066574  0.22098305  0.56896954    -0.24200
H1515       H  0.63296222  0.11695256  0.60504415     0.05000
H1516       H  0.59773114  0.09922148  0.61518673     0.08200
H1517       H  0.61752155  0.12323831  0.64214763     0.08200
H1518       H  0.53728923  0.21718572  0.54441883     0.08200
H1519       H  0.55212245  0.24302727  0.57248304     0.08200
H1520       H  0.51784646  0.22238992  0.57978728     0.05000
C1521       C  0.49687338  0.96324725  0.72578911    -0.20800
C1522       C  0.49797344  0.95909243  0.75733156    -0.07400
C1523       C  0.49416269  0.98472545  0.77647333     0.13500
C1524       C  0.49196628  0.01393065  0.76359284    -0.20900
C1525       C  0.49518914  0.01839914  0.73217880    -0.07400
C1526       C  0.49666287  0.99253169  0.71294741     0.13500
C1527       C  0.49847361  0.99548293  0.67889762    -0.24200
H1528       H  0.49882282  0.94355381  0.71107875     0.14700
H1529       H  0.48978315  0.03354980  0.77835056     0.14800
C1530       C  0.49236192  0.98144715  0.81047874    -0.24200
H1531       H  0.49724721  0.97300076  0.66747400     0.05000
H1532       H  0.52037399  0.00592904  0.67215857     0.08200
H1533       H  0.47925480  0.00962883  0.67057738     0.08200
H1534       H  0.51422208  0.97276215  0.81955732     0.08200
H1535       H  0.47380577  0.96551828  0.81651036     0.08200
H1536       H  0.48757864  0.00355443  0.82177643     0.05000
C1537       C  0.48470250  0.25692200  0.71430617    -0.20800
C1538       C  0.47858345  0.26906379  0.74322239    -0.07400
C1539       C  0.48503737  0.25117987  0.76908426     0.13500
C1540       C  0.49804363  0.22199334  0.76537197    -0.20900
C1541       C  0.50529503  0.21031588  0.73645145    -0.07400
C1542       C  0.49798920  0.22799723  0.71052161     0.13500
C1543       C  0.50315715  0.21629039  0.67867111    -0.24200
H1544       H  0.47956986  0.27050054  0.69442019     0.14700
H1545       H  0.50289600  0.20832501  0.78523972     0.14800
C1546       C  0.47732593  0.26234820  0.80051856    -0.24200
H1547       H  0.49430088  0.23230764  0.66129482     0.05000
H1548       H  0.49130351  0.19429474  0.67558430     0.08200
H1549       H  0.52784769  0.21323338  0.67430478     0.08200
H1550       H  0.45269026  0.26790845  0.80189853     0.08200
H1551       H  0.49078262  0.28290215  0.80592586     0.08200
H1552       H  0.48245728  0.24494022  0.81802997     0.05000
C1553       C  0.41182745  0.17881873  0.64549789    -0.20800
C1554       C  0.42303144  0.17705103  0.61560456    -0.07400
C1555       C  0.44948114  0.15975658  0.60957358     0.13500
C1556       C  0.46123561  0.14130546  0.63234791    -0.20900
C1557       C  0.44989675  0.14219544  0.66214862    -0.07400
C1558       C  0.42553983  0.16215062  0.66912207     0.13500
C1559       C  0.41302359  0.16482923  0.70084995    -0.24200
H1560       H  0.39166532  0.19232404  0.65016759     0.14700
H1561       H  0.47965954  0.12609065  0.62651714     0.14800
C1562       C  0.46601697  0.16101111  0.57943441    -0.24200
H1563       H  0.43055016  0.17440444  0.71616941     0.05000
H1564       H  0.40603162  0.14209761  0.70915768     0.08200
H1565       H  0.39286983  0.18012973  0.70178051     0.08200
H1566       H  0.47028306  0.18506150  0.57316534     0.08200
H1567       H  0.45282294  0.14965569  0.56132109     0.08200
H1568       H  0.48841219  0.14926289  0.58047872     0.05000
C1569       C  0.33719380  0.38784079  0.07092341    -0.20800
C1570       C  0.32422978  0.35859672  0.07037399    -0.07400
C1571       C  0.29769570  0.35307550  0.08787876     0.13500
C1572       C  0.28591276  0.37637022  0.10596165    -0.20900
C1573       C  0.29868568  0.40551730  0.10636894    -0.07400
C1574       C  0.32474483  0.41137050  0.08867527     0.13500
C1575       C  0.34051037  0.44163857  0.08972694    -0.24200
H1576       H  0.35765782  0.39221894  0.05792376     0.14700
H1577       H  0.26618143  0.37164714  0.11987846     0.14800
C1578       C  0.28154715  0.32284093  0.08847764    -0.24200
H1579       H  0.36157451  0.44164989  0.07575475     0.05000
H1580       H  0.34684476  0.44708844  0.11349893     0.08200
H1581       H  0.32537029  0.45965417  0.08083314     0.08200
H1582       H  0.29672734  0.30507009  0.09805555     0.08200
H1583       H  0.27429318  0.31654291  0.06517946     0.08200
H1584       H  0.26073151  0.32346440  0.10282715     0.05000
C1585       C  0.32248886  0.31909975  0.93620419    -0.20800
C1586       C  0.35439375  0.31937080  0.93841337    -0.07400
C1587       C  0.37072226  0.34318765  0.92499237     0.13500
C1588       C  0.35492760  0.36829042  0.91389774    -0.20900
C1589       C  0.32291932  0.37002541  0.91485400    -0.07400
C1590       C  0.30642858  0.34410866  0.92409370     0.13500
C1591       C  0.27224446  0.34337460  0.92329183    -0.24200
H1592       H  0.31001295  0.30077951  0.94682478     0.14700
H1593       H  0.36809035  0.38732716  0.90560041     0.14800
C1594       C  0.40501226  0.34395242  0.92479837    -0.24200
H1595       H  0.26329891  0.32156634  0.93211696     0.05000
H1596       H  0.26420928  0.34604071  0.89957177     0.08200
H1597       H  0.26281460  0.36189707  0.93756570     0.08200
H1598       H  0.41522258  0.32266821  0.93374493     0.08200
H1599       H  0.41304046  0.36330388  0.93881138     0.08200
H1600       H  0.41328040  0.34693445  0.90116351     0.05000
C1601       C  0.51400679  0.22222208  0.98394673    -0.20800
C1602       C  0.53566158  0.24357766  0.99333449    -0.07400
C1603       C  0.52568117  0.27380914  0.99965919     0.13500
C1604       C  0.49442414  0.28076191  0.99874258    -0.20900
C1605       C  0.47268627  0.25865056  0.99168211    -0.07400
C1606       C  0.48286771  0.22920861  0.98297965     0.13500
C1607       C  0.46133017  0.20471156  0.97258794    -0.24200
H1608       H  0.52132612  0.19937359  0.97818921     0.14700
H1609       H  0.48682135  0.30342532  0.00486059     0.14800
C1610       C  0.54728975  0.29906638  0.00780967    -0.24200
H1611       H  0.47368905  0.18444999  0.96376597     0.05000
H1612       H  0.44673739  0.21348924  0.95398939     0.08200
H1613       H  0.44706240  0.19686945  0.99181764     0.08200
H1614       H  0.56397568  0.30235253  0.98916674     0.08200
H1615       H  0.55935779  0.29373652  0.02916952     0.08200
H1616       H  0.53524682  0.32104540  0.01136998     0.05000
C1617       C  0.77376819  0.21446816  0.99999591    -0.20800
C1618       C  0.78444807  0.24227829  0.98879121    -0.07400
C1619       C  0.76668532  0.26880334  0.99268102     0.13500
C1620       C  0.73764217  0.26645267  0.00593072    -0.20900
C1621       C  0.72682203  0.23851380  0.01676681    -0.07400
C1622       C  0.74560124  0.21245331  0.01481674     0.13500
C1623       C  0.73601405  0.18249597  0.02819403    -0.24200
H1624       H  0.78791245  0.19431123  0.99772612     0.14700
H1625       H  0.72301026  0.28632007  0.00722261     0.14800
C1626       C  0.77776240  0.29921133  0.98175282    -0.24200
H1627       H  0.75335918  0.16442972  0.02434859     0.05000
H1628       H  0.71445387  0.17487527  0.01790548     0.08200
H1629       H  0.73272508  0.18508206  0.05305695     0.08200
H1630       H  0.78265303  0.29812500  0.95703051     0.08200
H1631       H  0.79879124  0.30553829  0.99408012     0.08200
H1632       H  0.76059791  0.31740459  0.98572714     0.05000
C1633       C  0.19507011  0.38556984  0.95154735    -0.20800
C1634       C  0.16624660  0.37973548  0.93975411    -0.07400
C1635       C  0.15278944  0.40073449  0.91948124     0.13500
C1636       C  0.17113076  0.42279728  0.90591610    -0.20900
C1637       C  0.20118157  0.42643379  0.91528392    -0.07400
C1638       C  0.21197326  0.41015430  0.94077187     0.13500
C1639       C  0.24060784  0.41908150  0.95707134    -0.24200
H1640       H  0.20434660  0.37084348  0.96897683     0.14700
H1641       H  0.16202227  0.43710222  0.88806110     0.14800
C1642       C  0.11927613  0.40138207  0.91280151    -0.24200
H1643       H  0.23751704  0.44214483  0.96666154     0.05000
H1644       H  0.26021902  0.41932295  0.94149710     0.08200
H1645       H  0.24589955  0.40342621  0.97612037     0.08200
H1646       H  0.10944197  0.42288769  0.92178263     0.08200
H1647       H  0.10689918  0.38235340  0.92349357     0.08200
H1648       H  0.11544349  0.40112039  0.88800896     0.05000
C1649       C  0.02545468  0.23305302  0.00712612    -0.20800
C1650       C  0.02853293  0.26382000  0.99917412    -0.07400
C1651       C  0.00203368  0.28173494  0.99491806     0.13500
C1652       C  0.97339944  0.26805148  0.99748171    -0.20900
C1653       C  0.97058848  0.23671458  0.00228420    -0.07400
C1654       C  0.99682789  0.21906484  0.00778218     0.13500
C1655       C  0.99464949  0.18554885  0.01422162    -0.24200
H1656       H  0.04566489  0.21942778  0.01104630     0.14700
H1657       H  0.95310816  0.28159795  0.99385663     0.14800
C1658       C  0.00357345  0.31517348  0.98762400    -0.24200
H1659       H  0.01731951  0.17536301  0.01891444     0.05000
H1660       H  0.98486753  0.17355245  0.99436980     0.08200
H1661       H  0.97991915  0.18182717  0.03437346     0.08200
H1662       H  0.01401160  0.31860786  0.96494918     0.08200
H1663       H  0.01713378  0.32711610  0.00516172     0.08200
H1664       H  0.98060310  0.32579142  0.98701905     0.05000
C1665       C  0.22662090  0.24644244  0.01844041    -0.20800
C1666       C  0.22058948  0.25191810  0.98760260    -0.07400
C1667       C  0.24485325  0.25135798  0.96663699     0.13500
C1668       C  0.27458710  0.24735086  0.97720293    -0.20900
C1669       C  0.28130321  0.24453435  0.00840577    -0.07400
C1670       C  0.25665987  0.24303616  0.02923381     0.13500
C1671       C  0.26152601  0.23824434  0.06271777    -0.24200
H1672       H  0.20779545  0.24610159  0.03434531     0.14700
H1673       H  0.29286279  0.24754401  0.96067648     0.14800
C1674       C  0.23959256  0.25446639  0.93292171    -0.24200
H1675       H  0.23963203  0.23670831  0.07525150     0.05000
H1676       H  0.27434927  0.25754717  0.07244861     0.08200
H1677       H  0.27426180  0.21672531  0.06645147     0.08200
H1678       H  0.23011486  0.27721626  0.92757351     0.08200
H1679       H  0.22354933  0.23668296  0.92515709     0.08200
H1680       H  0.26102611  0.25184556  0.91974978     0.05000
C1681       C  0.14697583  0.36484384  0.03815183    -0.20800
C1682       C  0.14735541  0.33472777  0.04843416    -0.07400
C1683       C  0.16623500  0.32692418  0.07331402     0.13500
C1684       C  0.18310410  0.34989165  0.08787359    -0.20900
C1685       C  0.18231570  0.38003947  0.07736555    -0.07400
C1686       C  0.16518200  0.38712337  0.05120985     0.13500
C1687       C  0.16662843  0.41793706  0.03617682    -0.24200
H1688       H  0.13271582  0.37114995  0.01923506     0.14700
H1689       H  0.19609657  0.34452251  0.10806607     0.14800
C1690       C  0.16762540  0.29496575  0.08546362    -0.24200
H1691       H  0.15483493  0.41803624  0.01389669     0.05000
H1692       H  0.19073725  0.42412386  0.03198325     0.08200
H1693       H  0.15550606  0.43553716  0.05045459     0.08200
H1694       H  0.17771714  0.27950047  0.06825350     0.08200
H1695       H  0.14438179  0.28716924  0.09139861     0.08200
H1696       H  0.18192557  0.29345555  0.10616569     0.05000
C1697       C  0.44867564  0.18640945  0.10932146    -0.20800
C1698       C  0.43864862  0.15677222  0.11324171    -0.07400
C1699       C  0.41798330  0.14399020  0.09234798     0.13500
C1700       C  0.40303139  0.16323006  0.07163313    -0.20900
C1701       C  0.41026012  0.19418375  0.07062748    -0.07400
C1702       C  0.43566335  0.20486981  0.08723692     0.13500
C1703       C  0.44895866  0.23596703  0.08291120    -0.24200
H1704       H  0.46571652  0.19565401  0.12449646     0.14700
H1705       H  0.38470388  0.15457308  0.05773300     0.14800
C1706       C  0.41165798  0.11042280  0.09225969    -0.24200
H1707       H  0.44541369  0.24978901  0.10374831     0.05000
H1708       H  0.43898274  0.24786389  0.06317621     0.08200
H1709       H  0.47376284  0.23381726  0.07846913     0.08200
H1710       H  0.40395844  0.10278199  0.11484756     0.08200
H1711       H  0.43290142  0.09792001  0.08650173     0.08200
H1712       H  0.39403782  0.10435423  0.07530185     0.05000
C1713       C  0.57926783  0.17138771  0.13756834    -0.20800
C1714       C  0.56870673  0.16872589  0.10756665    -0.07400
C1715       C  0.54488967  0.14806453  0.10140394     0.13500
C1716       C  0.53334050  0.13002603  0.12503051    -0.20900
C1717       C  0.54364119  0.13299208  0.15508090    -0.07400
C1718       C  0.56714503  0.15399306  0.16131143     0.13500
C1719       C  0.58044703  0.15765213  0.19265235    -0.24200
H1720       H  0.59769840  0.18690430  0.14244543     0.14700
H1721       H  0.51548714  0.11397791  0.11998289     0.14800
C1722       C  0.53166695  0.14436977  0.07007062    -0.24200
H1723       H  0.60076798  0.17254539  0.19248924     0.05000
H1724       H  0.58758161  0.13514012  0.20158199     0.08200
H1725       H  0.56359414  0.16830367  0.20819444     0.08200
H1726       H  0.54953573  0.13645756  0.05401524     0.08200
H1727       H  0.52201131  0.16637676  0.06227012     0.08200
H1728       H  0.51300911  0.12744790  0.06968027     0.05000
C1729       C  0.56618848  0.30859799  0.11476081    -0.20800
C1730       C  0.58218559  0.33411610  0.12440970    -0.07400
C1731       C  0.60946348  0.34236982  0.10946971     0.13500
C1732       C  0.62161387  0.32294149  0.08709585    -0.20900
C1733       C  0.60694050  0.29575452  0.07977948    -0.07400
C1734       C  0.57807490  0.28933203  0.09258431     0.13500
C1735       C  0.55966348  0.26165201  0.08433528    -0.24200
H1736       H  0.54470012  0.30302419  0.12528955     0.14700
H1737       H  0.64363694  0.32773911  0.07713709     0.14800
C1738       C  0.62673658  0.37042861  0.11840676    -0.24200
H1739       H  0.53655769  0.26878256  0.07701554     0.05000
H1740       H  0.55749252  0.24659170  0.10442213     0.08200
H1741       H  0.56979888  0.24845968  0.06542096     0.08200
H1742       H  0.63296260  0.36931900  0.14278479     0.08200
H1743       H  0.61239738  0.39080317  0.11426433     0.08200
H1744       H  0.64800252  0.37294259  0.10500283     0.05000
C1745       C  0.52652991  0.25569060  0.25568687    -0.20800
C1746       C  0.52153984  0.27535044  0.23115505    -0.07400
C1747       C  0.50613825  0.26426245  0.20530532     0.13500
C1748       C  0.49532937  0.23441216  0.20485421    -0.20900
C1749       C  0.49856821  0.21497350  0.22992574    -0.07400
C1750       C  0.51509818  0.22567430  0.25554542     0.13500
C1751       C  0.52011117  0.20618759  0.28316678    -0.24200
H1752       H  0.53832723  0.26423653  0.27548971     0.14700
H1753       H  0.48353342  0.22650590  0.18477934     0.14800
C1754       C  0.50068409  0.28406319  0.17803754    -0.24200
H1755       H  0.53278230  0.21849616  0.30113108     0.05000
H1756       H  0.53364428  0.18573987  0.27692058     0.08200
H1757       H  0.49787365  0.19928392  0.29288348     0.08200
H1758       H  0.52252248  0.29379592  0.17037774     0.08200
H1759       H  0.48475882  0.30260835  0.18425412     0.08200
H1760       H  0.49056670  0.27131033  0.15878656     0.05000
C1761       C  0.41645205  0.32950204  0.13530699    -0.20800
C1762       C  0.43075508  0.31945046  0.10829157    -0.07400
C1763       C  0.46232498  0.32485161  0.10445905     0.13500
C1764       C  0.47799258  0.34046573  0.12696382    -0.20900
C1765       C  0.46362117  0.35195870  0.15318759    -0.07400
C1766       C  0.43249697  0.34573187  0.15780330     0.13500
C1767       C  0.41595983  0.35674845  0.18569751    -0.24200
H1768       H  0.39235628  0.32551690  0.13847497     0.14700
H1769       H  0.50215383  0.34397661  0.12367917     0.14800
C1770       C  0.48027914  0.31517502  0.07666985    -0.24200
H1771       H  0.39144704  0.35080622  0.18505482     0.05000
H1772       H  0.41776070  0.38185068  0.18743208     0.08200
H1773       H  0.42596164  0.34607904  0.20621403     0.08200
H1774       H  0.47231594  0.32788566  0.05644173     0.08200
H1775       H  0.47811928  0.29041764  0.07289038     0.08200
H1776       H  0.50494754  0.32000078  0.07890406     0.05000
C1777       C  0.49632814  0.50731088  0.27708292    -0.20800
C1778       C  0.49339733  0.52983210  0.25473188    -0.07400
C1779       C  0.48828056  0.52063988  0.22417755     0.13500
C1780       C  0.49036422  0.48977840  0.21657746    -0.20900
C1781       C  0.49665211  0.46752620  0.23844769    -0.07400
C1782       C  0.49746609  0.47629132  0.26953134     0.13500
C1783       C  0.50001312  0.45360544  0.29508135    -0.24200
H1784       H  0.49897270  0.51400897  0.30061089     0.14700
H1785       H  0.48811308  0.48311127  0.19299200     0.14800
C1786       C  0.48096994  0.54277689  0.19901708    -0.24200
H1787       H  0.49955369  0.46482800  0.31768540     0.05000
H1788       H  0.52163032  0.44071232  0.29353823     0.08200
H1789       H  0.48054652  0.43766776  0.29420488     0.08200
H1790       H  0.50092045  0.55724044  0.19394621     0.08200
H1791       H  0.46114292  0.55708427  0.20561255     0.08200
H1792       H  0.47497453  0.53095218  0.17756455     0.05000
C1793       C  0.50980422  0.97672036  0.25701284    -0.20800
C1794       C  0.48311322  0.96742013  0.27206442    -0.07400
C1795       C  0.45766433  0.98754312  0.27252704     0.13500
C1796       C  0.45942324  0.01548178  0.25737613    -0.20900
C1797       C  0.48585918  0.02439487  0.24213074    -0.07400
C1798       C  0.51151974  0.00502392  0.24221341     0.13500
C1799       C  0.54015555  0.01354047  0.22553436    -0.24200
H1800       H  0.52927209  0.96152964  0.25629557     0.14700
H1801       H  0.43982440  0.03056808  0.25723515     0.14800
C1802       C  0.42792905  0.97954197  0.28758464    -0.24200
H1803       H  0.55772519  0.99537830  0.22701492     0.05000
H1804       H  0.54978729  0.03458268  0.23545881     0.08200
H1805       H  0.53498260  0.01742291  0.20117873     0.08200
H1806       H  0.43132286  0.97640173  0.31234469     0.08200
H1807       H  0.41884892  0.95844905  0.27729018     0.08200
H1808       H  0.41047812  0.99765202  0.28468318     0.05000
C1809       C  0.47244071  0.72559319  0.23934797    -0.20800
C1810       C  0.50425773  0.72111973  0.24051365    -0.07400
C1811       C  0.52317326  0.74711913  0.24029809     0.13500
C1812       C  0.50973556  0.77632901  0.24156891    -0.20900
C1813       C  0.47799203  0.78023735  0.24364051    -0.07400
C1814       C  0.45914335  0.75450109  0.24143240     0.13500
C1815       C  0.42489778  0.75718458  0.24140083    -0.24200
H1816       H  0.45746565  0.70614778  0.23828624     0.14700
H1817       H  0.52418839  0.79617243  0.24279635     0.14800
C1818       C  0.55732727  0.74449866  0.23976611    -0.24200
H1819       H  0.41384962  0.73493687  0.23716813     0.05000
H1820       H  0.41753848  0.77306906  0.22325441     0.08200
H1821       H  0.41663083  0.76549667  0.26373984     0.08200
H1822       H  0.56470252  0.73173327  0.21924035     0.08200
H1823       H  0.56539217  0.73265676  0.26048612     0.08200
H1824       H  0.56833746  0.76715155  0.23912557     0.05000
C1825       C  0.06293481  0.18231121  0.88937275    -0.20800
C1826       C  0.08241393  0.17251468  0.86603005    -0.07400
C1827       C  0.11421430  0.17798607  0.86867306     0.13500
C1828       C  0.12519581  0.19296827  0.89430525    -0.20900
C1829       C  0.10568794  0.20399233  0.91696262    -0.07400
C1830       C  0.07402043  0.19839886  0.91455551     0.13500
C1831       C  0.05150725  0.21018890  0.93756518    -0.24200
H1832       H  0.03871486  0.17826315  0.88742734     0.14700
H1833       H  0.14940080  0.19721350  0.89605496     0.14800
C1834       C  0.13725614  0.16889321  0.84472762    -0.24200
H1835       H  0.02772135  0.20430677  0.93156410     0.05000
H1836       H  0.05288643  0.23532292  0.93896132     0.08200
H1837       H  0.05647363  0.19992095  0.95998516     0.08200
H1838       H  0.13300208  0.18167982  0.82344693     0.08200
H1839       H  0.13616388  0.14417279  0.84035121     0.08200
H1840       H  0.16094741  0.17400123  0.85171980     0.05000
C1841       C  0.96328622  0.18649415  0.83592280    -0.20800
C1842       C  0.95635284  0.15618269  0.82841813    -0.07400
C1843       C  0.93157626  0.14178181  0.84246754     0.13500
C1844       C  0.91612303  0.15688566  0.86583046    -0.20900
C1845       C  0.92488184  0.18600523  0.87551543    -0.07400
C1846       C  0.94774569  0.20167798  0.85952705     0.13500
C1847       C  0.95688530  0.23340559  0.86840980    -0.24200
H1848       H  0.98217690  0.19756673  0.82466229     0.14700
H1849       H  0.89778051  0.14535032  0.87754170     0.14800
C1850       C  0.92150935  0.11049831  0.83294028    -0.24200
H1851       H  0.97549583  0.24206237  0.85373908     0.05000
H1852       H  0.96488205  0.23368117  0.89230339     0.08200
H1853       H  0.93712446  0.24903889  0.86611393     0.08200
H1854       H  0.93979812  0.09361274  0.83728144     0.08200
H1855       H  0.91596869  0.11055160  0.80835689     0.08200
H1856       H  0.90093347  0.10316295  0.84559276     0.05000
C1857       C  0.90312913  0.33886098  0.88480356    -0.20800
C1858       C  0.93433310  0.33404894  0.87952358    -0.07400
C1859       C  0.95130170  0.31669538  0.90038030     0.13500
C1860       C  0.93592855  0.30195832  0.92417027    -0.20900
C1861       C  0.90414963  0.30449333  0.92740882    -0.07400
C1862       C  0.88786867  0.32464541  0.90857887     0.13500
C1863       C  0.85430322  0.33081197  0.91286005    -0.24200
H1864       H  0.89005240  0.35247916  0.86904780     0.14700
H1865       H  0.94838125  0.28635398  0.93855999     0.14800
C1866       C  0.98482495  0.31160081  0.89618899    -0.24200
H1867       H  0.84616852  0.34933058  0.89775003     0.05000
H1868       H  0.84983145  0.33791108  0.93666048     0.08200
H1869       H  0.84076864  0.31033928  0.90744449     0.08200
H1870       H  0.99698984  0.33361178  0.89730798     0.08200
H1871       H  0.98890429  0.30081536  0.87378182     0.08200
H1872       H  0.99425937  0.29647885  0.91403075     0.05000
C1873       C  0.98589778  0.22286853  0.75342401    -0.20800
C1874       C  0.01773788  0.22015929  0.75176319    -0.07400
C1875       C  0.03542104  0.24696017  0.75148451     0.13500
C1876       C  0.02082327  0.27554796  0.75237084    -0.20900
C1877       C  0.98906023  0.27820146  0.75524145    -0.07400
C1878       C  0.97142428  0.25139478  0.75601991     0.13500
C1879       C  0.93734362  0.25264715  0.75953467    -0.24200
H1880       H  0.97227666  0.20243115  0.75415000     0.14700
H1881       H  0.03444242  0.29600970  0.75222177     0.14800
C1882       C  0.06965664  0.24563546  0.75021856    -0.24200
H1883       H  0.92707744  0.22966623  0.75831194     0.05000
H1884       H  0.92731628  0.26672223  0.74117558     0.08200
H1885       H  0.93123069  0.26251091  0.78194516     0.08200
H1886       H  0.07709261  0.23234023  0.73005766     0.08200
H1887       H  0.07869205  0.23489245  0.77113004     0.08200
H1888       H  0.07973714  0.26866981  0.74857677     0.05000
C1889       C  0.04411676  0.31806180  0.83706059    -0.20800
C1890       C  0.05337460  0.34669421  0.82638292    -0.07400
C1891       C  0.08068433  0.35934970  0.83698137     0.13500
C1892       C  0.09622196  0.34479357  0.86068333    -0.20900
C1893       C  0.08456513  0.31849846  0.87423464    -0.07400
C1894       C  0.05964974  0.30367310  0.86095884    -0.05700
C1895       C  0.04923558  0.27327245  0.87255785    -0.24200
H1896       H  0.02366344  0.30786119  0.82796686     0.14700
H1897       H  0.11718314  0.35418682  0.86926071     0.14800
C1898       C  0.09326906  0.38797419  0.82322150    -0.24200
H1899       H  0.02939744  0.26469592  0.85963685     0.05000
H1900       H  0.04281671  0.27508681  0.89686964     0.08200
H1901       H  0.06797242  0.25641191  0.87020051     0.08200
H1902       H  0.07722332  0.40718564  0.82690761     0.08200
H1903       H  0.09670639  0.38458958  0.79845721     0.08200
H1904       H  0.11552609  0.39413162  0.83330408     0.05000
C1905       C  0.01794458  0.51524686  0.74418240    -0.20800
C1906       C  0.98995964  0.52697034  0.73379038    -0.07400
C1907       C  0.96336678  0.50902580  0.73754849     0.13500
C1908       C  0.96550343  0.48065506  0.75192791    -0.20900
C1909       C  0.99347564  0.46860928  0.76136938    -0.07400
C1910       C  0.02008634  0.48601220  0.75733277     0.13500
C1911       C  0.05050071  0.47411739  0.76763289    -0.24200
H1912       H  0.03828457  0.52881298  0.74161139     0.14700
H1913       H  0.94512918  0.46718553  0.75500789     0.14800
C1914       C  0.93238336  0.51932276  0.72668759    -0.24200
H1915       H  0.06888691  0.49085536  0.76358938     0.05000
H1916       H  0.05631267  0.45302192  0.75500031     0.08200
H1917       H  0.04968766  0.46908062  0.79231530     0.08200
H1918       H  0.93220427  0.52055882  0.70152863     0.08200
H1919       H  0.92651080  0.54192274  0.73626334     0.08200
H1920       H  0.91416022  0.50330085  0.73351049     0.05000
C1921       C  0.99826402  0.97659672  0.76995888    -0.20800
C1922       C  0.00409015  0.97189319  0.73887303    -0.07400
C1923       C  0.00776031  0.99763889  0.71989798     0.13500
C1924       C  0.00669408  0.02696016  0.73265096    -0.20900
C1925       C  0.00361812  0.03143023  0.76405117    -0.07400
C1926       C  0.99903203  0.00590719  0.78293364     0.13500
C1927       C  0.99489892  0.00950258  0.81670266    -0.24200
H1928       H  0.99441212  0.95712491  0.78443294     0.14700
H1929       H  0.00999430  0.04653544  0.71813728     0.14800
C1930       C  0.01265399  0.99457797  0.68613372    -0.24200
H1931       H  0.99052530  0.98735888  0.82792703     0.05000
H1932       H  0.97527966  0.02480666  0.82139761     0.08200
H1933       H  0.01574628  0.01922628  0.82691375     0.08200
H1934       H  0.99409627  0.98087615  0.67603429     0.08200
H1935       H  0.03495392  0.98361371  0.68143402     0.08200
H1936       H  0.01278273  0.01705057  0.67468581     0.05000
C1937       C  0.97548795  0.77399805  0.74408704    -0.20800
C1938       C  0.00706598  0.77816826  0.74588162    -0.07400
C1939       C  0.02595389  0.75247516  0.75025226     0.13500
C1940       C  0.01294316  0.72331450  0.75186137    -0.20900
C1941       C  0.98167927  0.71871151  0.74699718    -0.07400
C1942       C  0.96258473  0.74468833  0.74392448     0.13500
C1943       C  0.92858813  0.74190092  0.74068339    -0.24200
H1944       H  0.96094423  0.79374452  0.74121512     0.14700
H1945       H  0.02770121  0.70374912  0.75484590     0.14800
C1946       C  0.05992058  0.75570805  0.75304224    -0.24200
H1947       H  0.91717393  0.76448249  0.74098466     0.05000
H1948       H  0.91928055  0.72834240  0.75977510     0.08200
H1949       H  0.92287315  0.73091632  0.71876339     0.08200
H1950       H  0.06533940  0.77121549  0.77216514     0.08200
H1951       H  0.06949470  0.76501659  0.73168389     0.08200
H1952       H  0.07121493  0.73350607  0.75738091     0.05000
C1953       C  0.33977067  0.14160902  0.40448335    -0.20800
C1954       C  0.31183426  0.12988476  0.41430632    -0.07400
C1955       C  0.29670493  0.14295555  0.43934110     0.13500
C1956       C  0.31091517  0.16658106  0.45524117    -0.20900
C1957       C  0.34016302  0.17646082  0.44702992    -0.07400
C1958       C  0.35444169  0.16446268  0.42091698     0.13500
C1959       C  0.38518280  0.17543985  0.41058428    -0.24200
H1960       H  0.35094722  0.13161263  0.38485265     0.14700
H1961       H  0.30004837  0.17599992  0.47531198     0.14800
C1962       C  0.26586968  0.13182969  0.44925655    -0.24200
H1963       H  0.39235714  0.16440070  0.38900583     0.05000
H1964       H  0.40266061  0.17016229  0.42793693     0.08200
H1965       H  0.38431946  0.20036895  0.40681027     0.08200
H1966       H  0.26718768  0.10746858  0.45561159     0.08200
H1967       H  0.24937778  0.13451823  0.43038451     0.08200
H1968       H  0.25712156  0.14475869  0.46915141     0.05000
C1969       C  0.39244075  0.07370403  0.32589754    -0.20800
C1970       C  0.36282836  0.08247990  0.31771582    -0.07400
C1971       C  0.35873920  0.10598563  0.29624369     0.13500
C1972       C  0.38427850  0.11942803  0.28303757    -0.20900
C1973       C  0.41396261  0.10963396  0.28987810    -0.07400
C1974       C  0.41810267  0.08670851  0.31207782     0.13500
C1975       C  0.44924270  0.07617857  0.32189408    -0.24200
H1976       H  0.39548751  0.05624553  0.34297445     0.14700
H1977       H  0.38079524  0.13702190  0.26620576     0.14800
C1978       C  0.32762962  0.11745103  0.28722435    -0.24200
H1979       H  0.44797521  0.05990277  0.34109797     0.05000
H1980       H  0.46286401  0.09597087  0.32943136     0.08200
H1981       H  0.46103556  0.06435355  0.30296740     0.08200
H1982       H  0.31497088  0.12532299  0.30763865     0.08200
H1983       H  0.31480772  0.09911287  0.27569153     0.08200
H1984       H  0.32897726  0.13684442  0.27117553     0.05000
C1985       C  0.32927215  0.92891241  0.35927868    -0.20800
C1986       C  0.32413020  0.95698856  0.34550851    -0.07400
C1987       C  0.33630968  0.96280032  0.31622587     0.13500
C1988       C  0.35592723  0.94152811  0.30289192    -0.20900
C1989       C  0.36434343  0.91530477  0.31856203    -0.07400
C1990       C  0.34963164  0.90803097  0.34625941     0.13500
C1991       C  0.35592026  0.87866575  0.36251816    -0.24200
H1992       H  0.31935424  0.92437310  0.38136296     0.14700
H1993       H  0.36641994  0.94658130  0.28120247     0.14800
C1994       C  0.33007167  0.99162409  0.29883676    -0.24200
H1995       H  0.34130807  0.87599166  0.38294059     0.05000
H1996       H  0.37990377  0.87794707  0.37011903     0.08200
H1997       H  0.35128576  0.85938441  0.34697618     0.08200
H1998       H  0.35159340  0.00430277  0.29549694     0.08200
H1999       H  0.31363336  0.00669488  0.31049940     0.08200
H2000       H  0.32042727  0.98592495  0.27626735     0.05000
C2001       C  0.15997965  0.12799680  0.39264147    -0.20800
C2002       C  0.16366803  0.12842980  0.42440006    -0.07400
C2003       C  0.17906804  0.10420263  0.43873805     0.13500
C2004       C  0.19246084  0.08152042  0.42053894    -0.20900
C2005       C  0.19067347  0.08274542  0.38869282    -0.07400
C2006       C  0.17312790  0.10538507  0.37468430     0.13500
C2007       C  0.16979512  0.10664063  0.34063522    -0.24200
H2008       H  0.14794455  0.14635586  0.38148763     0.14700
H2009       H  0.20687936  0.06451086  0.43102196     0.14800
C2010       C  0.18362815  0.10343629  0.47262556    -0.24200
H2011       H  0.15478474  0.12569038  0.33345017     0.05000
H2012       H  0.15964383  0.08511699  0.33237833     0.08200
H2013       H  0.19233810  0.10978816  0.32971697     0.08200
H2014       H  0.16129445  0.10189965  0.48429931     0.08200
H2015       H  0.19552420  0.12433038  0.48015081     0.08200
H2016       H  0.19753153  0.08351518  0.47967973     0.05000
C2017       C  0.14459298  0.11881402  0.58508935    -0.20800
C2018       C  0.17634986  0.11602252  0.58162768    -0.07400
C2019       C  0.19237032  0.13850752  0.56543699     0.13500
C2020       C  0.17572822  0.16178592  0.55112650    -0.20900
C2021       C  0.14372242  0.16280821  0.55276968    -0.07400
C2022       C  0.12813930  0.14196994  0.57116493     0.13500
C2023       C  0.09420143  0.14389769  0.57620730    -0.24200
H2024       H  0.13214819  0.10196410  0.59791447     0.14700
H2025       H  0.18757398  0.17806369  0.53700009     0.14800
C2026       C  0.22641833  0.13711074  0.56162969    -0.24200
H2027       H  0.08636885  0.12712135  0.59331325     0.05000
H2028       H  0.08182601  0.13915515  0.55483728     0.08200
H2029       H  0.08801760  0.16690767  0.58465208     0.08200
H2030       H  0.23309001  0.11541831  0.55047533     0.08200
H2031       H  0.23757702  0.13870948  0.58414777     0.08200
H2032       H  0.23495666  0.15610412  0.54742693     0.05000
C2033       C  0.12558761  0.09553782  0.66314417    -0.20800
C2034       C  0.12961936  0.06426535  0.66829585    -0.07400
C2035       C  0.10792564  0.04844104  0.68567917     0.13500
C2036       C  0.08397193  0.06490275  0.69932273    -0.20900
C2037       C  0.08143774  0.09663688  0.69575791    -0.07400
C2038       C  0.10169512  0.11183882  0.67621263     0.13500
C2039       C  0.09858072  0.14527796  0.66909129    -0.24200
H2040       H  0.14199182  0.10774012  0.64950755     0.14700
H2041       H  0.06850185  0.05329878  0.71452295     0.14800
C2042       C  0.11113396  0.01495622  0.69164979    -0.24200
H2043       H  0.11458681  0.15236182  0.65089927     0.05000
H2044       H  0.10371144  0.15927305  0.68936733     0.08200
H2045       H  0.07514698  0.15023537  0.66110209     0.08200
H2046       H  0.13329861  0.01040437  0.70280539     0.08200
H2047       H  0.10997375  0.00213326  0.66997116     0.08200
H2048       H  0.09274359  0.00653286  0.70673239     0.05000
C2049       C  0.22468607  0.00837546  0.47085618    -0.20800
C2050       C  0.25623462  0.00794074  0.46494499    -0.07400
C2051       C  0.27623442  0.00222877  0.48957626     0.13500
C2052       C  0.26416510  0.99802469  0.51903000    -0.20900
C2053       C  0.23273956  0.00009591  0.52482789    -0.07400
C2054       C  0.21277303  0.00502137  0.50018131     0.13500
C2055       C  0.17870098  0.00670212  0.50436631    -0.24200
H2056       H  0.20886618  0.01218543  0.45243176     0.14700
H2057       H  0.27952654  0.99459744  0.53793914     0.14800
C2058       C  0.31022359  0.00101172  0.48540149    -0.24200
H2059       H  0.16658424  0.00794096  0.48229975     0.05000
H2060       H  0.17232098  0.02739913  0.51734970     0.08200
H2061       H  0.17060364  0.98615293  0.51647123     0.08200
H2062       H  0.31854876  0.02327651  0.47707922     0.08200
H2063       H  0.31632195  0.98280982  0.46896299     0.08200
H2064       H  0.32215431  0.99601357  0.50703812     0.05000
C2065       C  0.13229225  0.90389166  0.64804223    -0.20800
C2066       C  0.12312664  0.91266025  0.67733031    -0.07400
C2067       C  0.13983517  0.93494242  0.69303575     0.13500
C2068       C  0.16438389  0.94915883  0.67834515    -0.20900
C2069       C  0.17197449  0.94196702  0.64813338    -0.07400
C2070       C  0.15642702  0.91836350  0.63318592     0.13500
C2071       C  0.16515034  0.90855156  0.60154661    -0.24200
H2072       H  0.11975648  0.88630983  0.63632047     0.14700
H2073       H  0.17625692  0.96747706  0.68968702     0.14800
C2074       C  0.13068222  0.94490913  0.72441952    -0.24200
H2075       H  0.15178391  0.88860767  0.59402897     0.05000
H2076       H  0.18958859  0.90208034  0.60099417     0.08200
H2077       H  0.16102328  0.92726144  0.58520185     0.08200
H2078       H  0.13210014  0.92525724  0.73987088     0.08200
H2079       H  0.10695592  0.95365770  0.72428027     0.08200
H2080       H  0.14579159  0.96297215  0.73335066     0.05000
C2081       C  0.33957811  0.11176592  0.59462998    -0.20800
C2082       C  0.33267004  0.11972166  0.56451291    -0.07400
C2083       C  0.31353204  0.10070917  0.54731035     0.13500
C2084       C  0.29911285  0.07615134  0.56177337    -0.20900
C2085       C  0.30330354  0.07064394  0.59295575    -0.07400
C2086       C  0.32508387  0.08756870  0.60911653     0.13500
C2087       C  0.33285162  0.08051134  0.64171136    -0.24200
H2088       H  0.35536116  0.12561645  0.60745088     0.14700
H2089       H  0.28260875  0.06282571  0.54933098     0.14800
C2090       C  0.30656851  0.10745973  0.51460691    -0.24200
H2091       H  0.35189727  0.09475508  0.65002569     0.05000
H2092       H  0.33986009  0.05631999  0.64370197     0.08200
H2093       H  0.31304493  0.08493543  0.65672863     0.08200
H2094       H  0.32785047  0.10684602  0.50100129     0.08200
H2095       H  0.29590535  0.13029344  0.51279642     0.08200
H2096       H  0.29067049  0.09054503  0.50483330     0.05000
C2097       C  0.10773247  0.93144581  0.82762158    -0.20800
C2098       C  0.13744264  0.92312478  0.81910450    -0.07400
C2099       C  0.14152757  0.90064103  0.79626857     0.13500
C2100       C  0.11620505  0.88588573  0.78436803    -0.20900
C2101       C  0.08645525  0.89389817  0.79277368    -0.07400
C2102       C  0.08215776  0.91745405  0.81443771     0.13500
C2103       C  0.05095022  0.92770513  0.82420699    -0.24200
H2104       H  0.10449234  0.94852555  0.84509991     0.14700
H2105       H  0.11988423  0.86858971  0.76719090     0.14800
C2106       C  0.17231814  0.89268026  0.78293015    -0.24200
H2107       H  0.05192126  0.94509988  0.84247698     0.05000
H2108       H  0.03778983  0.90805414  0.83283966     0.08200
H2109       H  0.03907916  0.93810943  0.80468372     0.08200
H2110       H  0.18619872  0.87967912  0.79945423     0.08200
H2111       H  0.18426936  0.91375382  0.77604331     0.08200
H2112       H  0.17032561  0.87820304  0.76235176     0.05000
C2113       C  0.25522755  0.01234162  0.76968535    -0.20800
C2114       C  0.25659807  0.98070401  0.77338533    -0.07400
C2115       C  0.25923747  0.96191308  0.74747589     0.13500
C2116       C  0.25895691  0.97515971  0.71844917    -0.20900
C2117       C  0.25515227  0.00665658  0.71463587    -0.07400
C2118       C  0.25393990  0.02557347  0.74070577     0.13500
C2119       C  0.25116862  0.05966710  0.73831856    -0.24200
H2120       H  0.25342946  0.02672272  0.78962390     0.14700
H2121       H  0.26003246  0.96062189  0.69858126     0.14800
C2122       C  0.26247361  0.92793857  0.75033448    -0.24200
H2123       H  0.25289470  0.07081952  0.76088813     0.05000
H2124       H  0.22875248  0.06607112  0.72868787     0.08200
H2125       H  0.26968465  0.06862982  0.72372581     0.08200
H2126       H  0.24171098  0.91817599  0.76071626     0.08200
H2127       H  0.28248337  0.92241415  0.76467737     0.08200
H2128       H  0.26579689  0.91689556  0.72786994     0.05000
C2129       C  0.17450025  0.04610976  0.81016895    -0.20800
C2130       C  0.17771348  0.04689353  0.84201732    -0.07400
C2131       C  0.15878148  0.06635027  0.85920464     0.13500
C2132       C  0.13503753  0.08165968  0.84477083    -0.20900
C2133       C  0.12983686  0.07888702  0.81338093    -0.07400
C2134       C  0.15076637  0.06209086  0.79553547     0.13500
C2135       C  0.14724346  0.05955260  0.76162983    -0.24200
H2136       H  0.18936863  0.03147180  0.79691873     0.14700
H2137       H  0.11981085  0.09548764  0.85848519     0.14800
C2138       C  0.16343408  0.07126451  0.89280873    -0.24200
H2139       H  0.16517937  0.04486732  0.75139265     0.05000
H2140       H  0.14898432  0.08239541  0.75113219     0.08200
H2141       H  0.12477747  0.04957192  0.75613509     0.08200
H2142       H  0.18728812  0.07820919  0.89709078     0.08200
H2143       H  0.15831188  0.05028880  0.90569100     0.08200
H2144       H  0.14828182  0.08945429  0.90182950     0.05000
C2145       C  0.37455808  0.90311472  0.16032779    -0.20800
C2146       C  0.37017502  0.93469313  0.16359743    -0.07400
C2147       C  0.38996089  0.95104663  0.18270641     0.13500
C2148       C  0.41178739  0.93497854  0.19993417    -0.20900
C2149       C  0.41412712  0.90301943  0.19839302    -0.07400
C2150       C  0.39620959  0.88715337  0.17715889     0.13500
C2151       C  0.39951534  0.85334710  0.17203339    -0.24200
H2152       H  0.35995780  0.89038726  0.14517438     0.14700
H2153       H  0.42577810  0.94723563  0.21601585     0.14800
C2154       C  0.38693356  0.98486796  0.18643674    -0.24200
H2155       H  0.38582531  0.84552786  0.15237180     0.05000
H2156       H  0.39149264  0.84057070  0.19216585     0.08200
H2157       H  0.42368569  0.84760593  0.16727503     0.08200
H2158       H  0.36383312  0.99047165  0.19501079     0.08200
H2159       H  0.39064769  0.99625788  0.16427943     0.08200
H2160       H  0.40384991  0.99388283  0.20278425     0.05000
C2161       C  0.21914101  0.00259054  0.98622090    -0.20800
C2162       C  0.24087418  0.99990668  0.96297505    -0.07400
C2163       C  0.27199391  0.00371870  0.97058436     0.13500
C2164       C  0.28053408  0.00637490  0.00124109    -0.20900
C2165       C  0.25897935  0.00685108  0.02477871    -0.07400
C2166       C  0.22765589  0.00702745  0.01679479     0.13500
C2167       C  0.20283776  0.01092204  0.04003454    -0.24200
H2168       H  0.19525906  0.00088449  0.98042462     0.14700
H2169       H  0.30448163  0.00714892  0.00699861     0.14800
C2170       C  0.29678256  0.00330533  0.94698637    -0.24200
H2171       H  0.18008716  0.01288734  0.02927905     0.05000
H2172       H  0.20659443  0.03192047  0.05346584     0.08200
H2173       H  0.20212283  0.99093493  0.05496877     0.08200
H2174       H  0.29260717  0.02113278  0.92969046     0.08200
H2175       H  0.29789525  0.98059155  0.93637027     0.08200
H2176       H  0.31947367  0.00775960  0.95704560     0.05000
C2177       C  0.25117597  0.98040623  0.26881853    -0.20800
C2178       C  0.24763876  0.01196845  0.27342291    -0.07400
C2179       C  0.24249627  0.03078065  0.24778429     0.13500
C2180       C  0.24214191  0.01765178  0.21865783    -0.20900
C2181       C  0.24748037  0.98646383  0.21425504    -0.07400
C2182       C  0.25147751  0.96750630  0.23974830     0.13500
C2183       C  0.25582150  0.93359798  0.23664042    -0.24200
H2184       H  0.25483007  0.96555299  0.28807317     0.14700
H2185       H  0.23915109  0.03213906  0.19899659     0.14800
C2186       C  0.23795401  0.06465509  0.25047463    -0.24200
H2187       H  0.25623166  0.92212804  0.25908223     0.05000
H2188       H  0.27778658  0.92844359  0.22526729     0.08200
H2189       H  0.23682254  0.92382236  0.22330502     0.08200
H2190       H  0.25874299  0.07532123  0.25985795     0.08200
H2191       H  0.21812587  0.06962849  0.26536680     0.08200
H2192       H  0.23347645  0.07534261  0.22808741     0.05000
C2193       C  0.35540418  0.09862238  0.15491646    -0.20800
C2194       C  0.36730093  0.08665028  0.18188107    -0.07400
C2195       C  0.35249213  0.06229243  0.19624326     0.13500
C2196       C  0.32817361  0.04808880  0.18124259    -0.20900
C2197       C  0.31937247  0.05733796  0.15195216    -0.07400
C2198       C  0.33219781  0.08368429  0.13921368     0.13500
C2199       C  0.32212539  0.09549766  0.10875164    -0.24200
H2200       H  0.36576632  0.11860963  0.14508598     0.14700
H2201       H  0.31781972  0.02812490  0.19120805     0.14800
C2202       C  0.36320487  0.05064171  0.22652219    -0.24200
H2203       H  0.33408542  0.11680923  0.10260168     0.05000
H2204       H  0.29731619  0.10030379  0.10929263     0.08200
H2205       H  0.32707784  0.07846806  0.09078724     0.08200
H2206       H  0.36142956  0.06906470  0.24361403     0.08200
H2207       H  0.38728233  0.04310612  0.22492831     0.08200
H2208       H  0.34928893  0.03122555  0.23452598     0.05000
C2209       C  0.08844392  0.81888299  0.13988647    -0.20800
C2210       C  0.08073097  0.82527762  0.10960019    -0.07400
C2211       C  0.05782519  0.84749118  0.10394292     0.13500
C2212       C  0.04491680  0.86364351  0.12827344    -0.20900
C2213       C  0.05295227  0.85782828  0.15853951    -0.07400
C2214       C  0.07466271  0.83452912  0.16439649     0.13500
C2215       C  0.08402050  0.82631651  0.19623346    -0.24200
H2216       H  0.10582498  0.80194895  0.14443036     0.14700
H2217       H  0.02770454  0.88066462  0.12347510     0.14800
C2218       C  0.04588045  0.85402069  0.07244924    -0.24200
H2219       H  0.10251093  0.80901750  0.19639571     0.05000
H2220       H  0.06443653  0.81655304  0.20873921     0.08200
H2221       H  0.09241174  0.84682880  0.20822452     0.08200
H2222       H  0.03900199  0.83249445  0.06125982     0.08200
H2223       H  0.06335699  0.86574261  0.05863009     0.08200
H2224       H  0.02558608  0.86916153  0.07301299     0.05000
C2225       C  0.16649797  0.87768766  0.09260094    -0.20800
C2226       C  0.17300831  0.87241212  0.06173702    -0.07400
C2227       C  0.18910507  0.89447580  0.04507681     0.13500
C2228       C  0.20143943  0.91941674  0.06071002    -0.20900
C2229       C  0.19774332  0.92255896  0.09232986    -0.07400
C2230       C  0.17869693  0.90236503  0.10814203     0.13500
C2231       C  0.17129564  0.90648963  0.14139559    -0.24200
H2232       H  0.15252580  0.86169454  0.10504114     0.14700
H2233       H  0.21587402  0.93522328  0.04859915     0.14800
C2234       C  0.19474344  0.89105454  0.01152116    -0.24200
H2235       H  0.15406896  0.88986037  0.14926685     0.05000
H2236       H  0.16193364  0.92965362  0.14529751     0.08200
H2237       H  0.19187567  0.90311493  0.15550354     0.08200
H2238       H  0.17274701  0.89054299  0.99921460     0.08200
H2239       H  0.20752021  0.86971356  0.00708471     0.08200
H2240       H  0.20825169  0.91023168  0.00232173     0.05000
C2241       C  0.10323425  0.71680821  0.11250232    -0.20800
C2242       C  0.09983059  0.70580684  0.08281593    -0.07400
C2243       C  0.08003333  0.68105996  0.07769713     0.13500
C2244       C  0.06659850  0.66635474  0.10278878    -0.20900
C2245       C  0.07223285  0.67617786  0.13263735    -0.07400
C2246       C  0.08969192  0.70276095  0.13731982     0.13500
C2247       C  0.09487531  0.71671349  0.16830858    -0.24200
H2248       H  0.11746232  0.73638250  0.11664312     0.14700
H2249       H  0.05281694  0.64632711  0.09916238     0.14800
C2250       C  0.07353300  0.66960799  0.04627876    -0.24200
H2251       H  0.10640806  0.73906561  0.16674872     0.05000
H2252       H  0.10971088  0.70195720  0.18234204     0.08200
H2253       H  0.07290816  0.72073473  0.17997158     0.08200
H2254       H  0.09509517  0.66379308  0.03440137     0.08200
H2255       H  0.06104919  0.68747096  0.03370743     0.08200
H2256       H  0.05901357  0.64902636  0.04664640     0.05000
C2257       C  0.14970374  0.83319093  0.91984755    -0.20800
C2258       C  0.16661491  0.81879083  0.94254210    -0.07400
C2259       C  0.19668438  0.82874182  0.94832295     0.13500
C2260       C  0.20823613  0.85404762  0.93258652    -0.20900
C2261       C  0.19014860  0.86989406  0.91173772    -0.07400
C2262       C  0.16093810  0.85852953  0.90441864     0.13500
C2263       C  0.14129988  0.87280557  0.88027418    -0.24200
H2264       H  0.12672945  0.82554275  0.91537566     0.14700
H2265       H  0.23081228  0.86241378  0.93770053     0.14800
C2266       C  0.21619870  0.81365012  0.97183317    -0.24200
H2267       H  0.11971232  0.86023157  0.87697237     0.05000
H2268       H  0.15369851  0.87242899  0.85834455     0.08200
H2269       H  0.13511812  0.89644812  0.88656679     0.08200
H2270       H  0.22058645  0.79014533  0.96436069     0.08200
H2271       H  0.20459367  0.81368291  0.99423010     0.08200
H2272       H  0.23850648  0.82508329  0.97444983     0.05000
C2273       C  0.42670548  0.80188531  0.85268683    -0.20800
C2274       C  0.43117754  0.81262681  0.88248257    -0.07400
C2275       C  0.45282564  0.83601825  0.88732303     0.13500
C2276       C  0.46760833  0.84897180  0.86251622    -0.20900
C2277       C  0.46269961  0.83914292  0.83264057    -0.07400
C2278       C  0.44235917  0.81473011  0.82768691     0.13500
C2279       C  0.43623674  0.80284625  0.79625338    -0.24200
H2280       H  0.41022673  0.78407952  0.84881364     0.14700
H2281       H  0.48361411  0.86711392  0.86678074     0.14800
C2282       C  0.46118983  0.84767940  0.91858615    -0.24200
H2283       H  0.41875877  0.78471370  0.79642880     0.05000
H2284       H  0.45737594  0.79301802  0.78641938     0.08200
H2285       H  0.42786652  0.82159509  0.78159185     0.08200
H2286       H  0.46773609  0.82838409  0.93345340     0.08200
H2287       H  0.44208163  0.86074531  0.92874200     0.08200
H2288       H  0.48068367  0.86359213  0.91791756     0.05000
C2289       C  0.33972079  0.87068753  0.89644722    -0.20800
C2290       C  0.33111574  0.86413422  0.92645170    -0.07400
C2291       C  0.31060404  0.88359515  0.94177559     0.13500
C2292       C  0.29816470  0.90851390  0.92607895    -0.20900
C2293       C  0.30562736  0.91402826  0.89548780    -0.07400
C2294       C  0.32720185  0.89529531  0.88072967     0.13500
C2295       C  0.33722546  0.90117719  0.84848838    -0.24200
H2296       H  0.35615476  0.85613176  0.88504523     0.14700
H2297       H  0.28113069  0.92262330  0.93713679     0.14800
C2298       C  0.30049893  0.87715976  0.97383203    -0.24200
H2299       H  0.35584079  0.88551755  0.84140593     0.05000
H2300       H  0.34572009  0.92480647  0.84646392     0.08200
H2301       H  0.31806085  0.89777227  0.83254807     0.08200
H2302       H  0.32024137  0.87826936  0.98943876     0.08200
H2303       H  0.29024736  0.85418735  0.97504250     0.08200
H2304       H  0.28324851  0.89390568  0.98182135     0.05000
C2305       C  0.23057340  0.73602860  0.98328400    -0.20800
C2306       C  0.22694765  0.74026619  0.01473050    -0.07400
C2307       C  0.25302897  0.74034925  0.03332187     0.13500
C2308       C  0.28198239  0.73902061  0.01969870    -0.20900
C2309       C  0.28553464  0.73998399  0.98796033    -0.07400
C2310       C  0.25946296  0.73724183  0.96951301     0.13500
C2311       C  0.26184931  0.73586490  0.93542448    -0.24200
H2312       H  0.21053580  0.73472584  0.96905969     0.14700
H2313       H  0.30201404  0.73945732  0.03397147     0.14800
C2314       C  0.25046451  0.74169609  0.06740409    -0.24200
H2315       H  0.23932922  0.73210194  0.92471905     0.05000
H2316       H  0.27714354  0.71686725  0.92863260     0.08200
H2317       H  0.27087841  0.75758763  0.92650098     0.08200
H2318       H  0.23634115  0.72253094  0.07561507     0.08200
H2319       H  0.23995119  0.76353235  0.07455978     0.08200
H2320       H  0.27309840  0.74001668  0.07844307     0.05000
C2321       C  0.44315233  0.69823333  0.92661724    -0.20800
C2322       C  0.41221870  0.69219201  0.93223085    -0.07400
C2323       C  0.39803782  0.66787130  0.91720484     0.13500
C2324       C  0.41404373  0.65237611  0.89453689    -0.20900
C2325       C  0.44408987  0.65992953  0.88691057    -0.07400
C2326       C  0.45925804  0.68243360  0.90379330     0.13500
C2327       C  0.49135070  0.69128557  0.89623512    -0.24200
H2328       H  0.45395272  0.71701269  0.93828356     0.14700
H2329       H  0.40225909  0.63551599  0.88125466     0.14800
C2330       C  0.36587911  0.65853093  0.92458142    -0.24200
H2331       H  0.49971066  0.70967804  0.91131907     0.05000
H2332       H  0.49271011  0.69930185  0.87238120     0.08200
H2333       H  0.50634812  0.67125587  0.89908175     0.08200
H2334       H  0.34958741  0.67691686  0.91877441     0.08200
H2335       H  0.36403211  0.65325753  0.94915788     0.08200
H2336       H  0.35908090  0.63795573  0.91167502     0.05000
C2337       C  0.30323476  0.86206051  0.06253353    -0.20800
C2338       C  0.32173078  0.88631609  0.07178111    -0.07400
C2339       C  0.35387834  0.88319089  0.06927210     0.13500
C2340       C  0.36620391  0.85589930  0.05885974    -0.20900
C2341       C  0.34796038  0.83244960  0.04770790    -0.07400
C2342       C  0.31591916  0.83551468  0.04967809     0.13500
C2343       C  0.29499850  0.81151148  0.03767509    -0.24200
H2344       H  0.27873536  0.86428909  0.06442978     0.14700
H2345       H  0.39074655  0.85367376  0.05748758     0.14800
C2346       C  0.37603569  0.90843987  0.07627267    -0.24200
H2347       H  0.27067371  0.81798442  0.04032906     0.05000
H2348       H  0.29891086  0.79034846  0.05066038     0.08200
H2349       H  0.29940404  0.80760620  0.01314165     0.08200
H2350       H  0.37349009  0.91619797  0.09997949     0.08200
H2351       H  0.37219690  0.92775546  0.06054205     0.08200
H2352       H  0.40010871  0.90118981  0.07337173     0.05000
C2353       C  0.58644201  0.68295836  0.86205215    -0.20800
C2354       C  0.58088044  0.67528477  0.89243378    -0.07400
C2355       C  0.56416531  0.64885938  0.89924869     0.13500
C2356       C  0.55298391  0.63112495  0.87550978    -0.20900
C2357       C  0.55724102  0.63927945  0.84494005    -0.07400
C2358       C  0.57444057  0.66563342  0.83812354     0.13500
C2359       C  0.58063034  0.67568061  0.80600454    -0.24200
H2360       H  0.60008920  0.70279829  0.85707642     0.14700
H2361       H  0.53977601  0.61118766  0.88114105     0.14800
C2362       C  0.55817575  0.63883488  0.93147629    -0.24200
H2363       H  0.59602536  0.69560179  0.80522784     0.05000
H2364       H  0.55912206  0.68254094  0.79480167     0.08200
H2365       H  0.59163645  0.65691773  0.79308673     0.08200
H2366       H  0.54445688  0.65630591  0.94359017     0.08200
H2367       H  0.58000141  0.63511864  0.94350390     0.08200
H2368       H  0.54526267  0.61722789  0.93237744     0.05000
C2369       C  0.51299447  0.73211986  0.01517802    -0.20800
C2370       C  0.53540973  0.75328467  0.00702233    -0.07400
C2371       C  0.52637996  0.78412440  0.00281097     0.13500
C2372       C  0.49529015  0.79142107  0.00163810    -0.20900
C2373       C  0.47285212  0.76956983  0.00699116    -0.07400
C2374       C  0.48198595  0.74005886  0.01617038     0.13500
C2375       C  0.45947175  0.71637725  0.02607669    -0.24200
H2376       H  0.51964758  0.70892265  0.02018762     0.14700
H2377       H  0.48837169  0.81447151  0.99622399     0.14800
C2378       C  0.54878972  0.80985761  0.00010442    -0.24200
H2379       H  0.47092488  0.69504203  0.03332516     0.05000
H2380       H  0.44424097  0.71056117  0.00707900     0.08200
H2381       H  0.44602100  0.72494335  0.04568826     0.08200
H2382       H  0.56284155  0.80745388  0.97946400     0.08200
H2383       H  0.56366993  0.81026877  0.02042390     0.08200
H2384       H  0.53721784  0.83231154  0.99868380     0.05000
C2385       C  0.58184269  0.80399545  0.91795903    -0.20800
C2386       C  0.61358270  0.80547113  0.92052335    -0.07400
C2387       C  0.63038220  0.82287922  0.89973082     0.13500
C2388       C  0.61508152  0.83719767  0.87591281    -0.20900
C2389       C  0.58340553  0.83423798  0.87216610    -0.07400
C2390       C  0.56639538  0.81885021  0.89449456     0.13500
C2391       C  0.53235413  0.81688721  0.89322903    -0.24200
H2392       H  0.56930141  0.78894521  0.93278560     0.14700
H2393       H  0.62830864  0.84972600  0.85934832     0.14800
C2394       C  0.66456666  0.82500280  0.90084805    -0.24200
H2395       H  0.52289382  0.80338683  0.91230546     0.05000
H2396       H  0.52504653  0.80623898  0.87171901     0.08200
H2397       H  0.52290343  0.84016140  0.89486862     0.08200
H2398       H  0.67446501  0.81497851  0.87985845     0.08200
H2399       H  0.67441315  0.81300353  0.92068235     0.08200
H2400       H  0.67131444  0.84923923  0.90233440     0.05000
C2401       C  0.97069108  0.64113819  0.13589878    -0.20800
C2402       C  0.96046025  0.64502091  0.16584265    -0.07400
C2403       C  0.93597865  0.66513765  0.17175469     0.13500
C2404       C  0.92288205  0.68119498  0.14748041    -0.20900
C2405       C  0.93386753  0.67792776  0.11759034    -0.07400
C2406       C  0.95823778  0.65748567  0.11182888     0.13500
C2407       C  0.97119892  0.65192367  0.08048042    -0.24200
H2408       H  0.98938400  0.62567672  0.13123200     0.14700
H2409       H  0.90390419  0.69640066  0.15189498     0.14800
C2410       C  0.92312992  0.66930376  0.20325728    -0.24200
H2411       H  0.98966905  0.63460094  0.08059357     0.05000
H2412       H  0.98115130  0.67320850  0.07141504     0.08200
H2413       H  0.95313254  0.64348976  0.06509185     0.08200
H2414       H  0.94022308  0.67981728  0.21841102     0.08200
H2415       H  0.91623590  0.64694256  0.21258199     0.08200
H2416       H  0.90280243  0.68439743  0.20323819     0.05000
C2417       C  0.01707829  0.78348547  0.99638346    -0.20800
C2418       C  0.03983047  0.76212794  0.99001372    -0.07400
C2419       C  0.03125379  0.73187436  0.98318744     0.13500
C2420       C  0.00065401  0.72304953  0.98736063    -0.20900
C2421       C  0.97815558  0.74411196  0.99643705    -0.07400
C2422       C  0.98658288  0.77531731  0.99928327     0.13500
C2423       C  0.96434942  0.80073774  0.00625857    -0.24200
H2424       H  0.02345011  0.80695510  0.00023264     0.14700
H2425       H  0.99434964  0.69956954  0.98363713     0.14800
C2426       C  0.05392018  0.70893477  0.97134809    -0.24200
H2427       H  0.97549767  0.82331636  0.00724912     0.05000
H2428       H  0.95368259  0.79704338  0.02870308     0.08200
H2429       H  0.94678303  0.80209941  0.98824835     0.08200
H2430       H  0.07298486  0.70594802  0.98741511     0.08200
H2431       H  0.06314743  0.71687753  0.94928061     0.08200
H2432       H  0.04333784  0.68636911  0.96764555     0.05000
C2433       C  0.78139059  0.75020696  0.98264419    -0.20800
C2434       C  0.78790868  0.75461382  0.01370718    -0.07400
C2435       C  0.76362802  0.76091125  0.03384840     0.13500
C2436       C  0.73382354  0.76147810  0.02252952    -0.20900
C2437       C  0.72725194  0.75433428  0.99202627    -0.07400
C2438       C  0.75163974  0.74943537  0.97161263     0.13500
C2439       C  0.74697726  0.74233631  0.93839924    -0.24200
H2440       H  0.79972297  0.74598583  0.96669283     0.14700
H2441       H  0.71535241  0.76645776  0.03808074     0.14800
C2442       C  0.76851375  0.76643191  0.06725100    -0.24200
H2443       H  0.76887122  0.73915459  0.92612744     0.05000
H2444       H  0.73397337  0.72091831  0.93591098     0.08200
H2445       H  0.73467935  0.76137381  0.92726454     0.08200
H2446       H  0.78398233  0.78602338  0.07050450     0.08200
H2447       H  0.77834193  0.74579188  0.07795357     0.08200
H2448       H  0.74685595  0.77168113  0.07924735     0.05000
C2449       C  0.90424848  0.83440234  0.08026828    -0.20800
C2450       C  0.91349776  0.80407867  0.07745246    -0.07400
C2451       C  0.93994614  0.79405377  0.09300733     0.13500
C2452       C  0.95280134  0.81252662  0.11523248    -0.20900
C2453       C  0.94101948  0.84140434  0.12092807    -0.07400
C2454       C  0.91834809  0.85354844  0.10153261     0.13500
C2455       C  0.90838413  0.88624769  0.10291381    -0.24200
H2456       H  0.88485664  0.84258692  0.06744897     0.14700
H2457       H  0.97127835  0.80381978  0.12906467     0.14800
C2458       C  0.95472696  0.76365288  0.08717710    -0.24200
H2459       H  0.88358037  0.88753601  0.10702933     0.05000
H2460       H  0.91326676  0.89727234  0.08079342     0.08200
H2461       H  0.92031101  0.89924144  0.12078723     0.08200
H2462       H  0.94441056  0.75176337  0.06766668     0.08200
H2463       H  0.95295309  0.74919616  0.10773463     0.08200
H2464       H  0.97913354  0.76696095  0.08157922     0.05000
C2465       C  0.89935743  0.11986177  0.17703593    -0.20800
C2466       C  0.91867860  0.10326928  0.19604909    -0.07400
C2467       C  0.91430541  0.07146594  0.19893989     0.13500
C2468       C  0.88988577  0.05747873  0.18390289    -0.20900
C2469       C  0.86947402  0.07451072  0.16641507    -0.07400
C2470       C  0.87511294  0.10600370  0.16190645     0.13500
C2471       C  0.85644017  0.12528161  0.14051949    -0.24200
H2472       H  0.90289079  0.14410144  0.17453494     0.14700
H2473       H  0.88601440  0.03335782  0.18675699     0.14800
C2474       C  0.93432919  0.05232397  0.21890737    -0.24200
H2475       H  0.86561902  0.14865560  0.13838534     0.05000
H2476       H  0.83269083  0.12758040  0.14874949     0.08200
H2477       H  0.85690926  0.11493951  0.11756869     0.08200
H2478       H  0.92731135  0.02813320  0.21907953     0.08200
H2479       H  0.93335623  0.06086100  0.24261257     0.08200
H2480       H  0.95791821  0.05327419  0.21016022     0.05000
C2481       C  0.80773306  0.14394637  0.07584464    -0.20800
C2482       C  0.81462901  0.11382234  0.06749805    -0.07400
C2483       C  0.83582581  0.10859306  0.04370317     0.13500
C2484       C  0.85187674  0.13284767  0.03167334    -0.20900
C2485       C  0.84658591  0.16279883  0.04105290    -0.07400
C2486       C  0.82329730  0.16864895  0.06266110     0.13500
C2487       C  0.81585298  0.20041722  0.07313434    -0.24200
H2488       H  0.79151635  0.14807888  0.09397264     0.14700
H2489       H  0.86867770  0.12802739  0.01423527     0.14800
C2490       C  0.84273948  0.07784699  0.03006587    -0.24200
H2491       H  0.79798226  0.20053425  0.09100193     0.05000
H2492       H  0.80725079  0.21415743  0.05390088     0.08200
H2493       H  0.83651998  0.21122192  0.08262657     0.08200
H2494       H  0.82812924  0.05972071  0.03880980     0.08200
H2495       H  0.86682385  0.07161169  0.03452613     0.08200
H2496       H  0.83908507  0.07868781  0.00512645     0.05000
C2497       C  0.67298401  0.08158602  0.10396340    -0.20800
C2498       C  0.69983933  0.07161717  0.09002882    -0.07400
C2499       C  0.70938837  0.08515943  0.06247873     0.13500
C2500       C  0.69248964  0.10899489  0.05016792    -0.20900
C2501       C  0.66660688  0.11989839  0.06486357    -0.07400
C2502       C  0.65616729  0.10569212  0.09169605     0.13500
C2503       C  0.62875409  0.11723035  0.10870442    -0.24200
H2504       H  0.66611551  0.07158994  0.12538197     0.14700
H2505       H  0.70031554  0.12001749  0.02957742     0.14800
C2506       C  0.73803767  0.07660015  0.04606291    -0.24200
H2507       H  0.62380042  0.10332666  0.12913553     0.05000
H2508       H  0.60845754  0.11655926  0.09381269     0.08200
H2509       H  0.63303820  0.14078661  0.11642878     0.08200
H2510       H  0.75091900  0.05835070  0.05745176     0.08200
H2511       H  0.75304651  0.09672101  0.04408677     0.08200
H2512       H  0.73185500  0.06892198  0.02295487     0.05000
C2513       C  0.86336519  0.90630401  0.16522854    -0.20800
C2514       C  0.88044327  0.92298659  0.18627682    -0.07400
C2515       C  0.87067716  0.95211824  0.19523301     0.13500
C2516       C  0.84580747  0.96537898  0.18028182    -0.20900
C2517       C  0.83107505  0.95002807  0.15652805    -0.07400
C2518       C  0.83882113  0.91971172  0.14990405     0.13500
C2519       C  0.82184638  0.90209382  0.12608073    -0.24200
H2520       H  0.87043526  0.88336555  0.15949268     0.14700
H2521       H  0.83907033  0.98847011  0.18581940     0.14800
C2522       C  0.88710168  0.96932280  0.21973097    -0.24200
H2523       H  0.83048573  0.87841339  0.12403589     0.05000
H2524       H  0.82431934  0.91335250  0.10367747     0.08200
H2525       H  0.79736005  0.90114583  0.13221965     0.08200
H2526       H  0.91110326  0.97310686  0.21289185     0.08200
H2527       H  0.88666106  0.95595727  0.24107292     0.08200
H2528       H  0.87628157  0.99173009  0.22431876     0.05000
C2529       C  0.88564073  0.90226860  0.33080020    -0.20800
C2530       C  0.88079980  0.93370338  0.32660386    -0.07400
C2531       C  0.90217464  0.95033813  0.30953218     0.13500
C2532       C  0.92615602  0.93461076  0.29497492    -0.20900
C2533       C  0.92938889  0.90277928  0.29732181    -0.07400
C2534       C  0.90956704  0.88666483  0.31655764     0.13500
C2535       C  0.91347156  0.85307375  0.32229493    -0.24200
H2536       H  0.86998322  0.88949862  0.34485960     0.14700
H2537       H  0.94123853  0.94701083  0.28006205     0.14800
C2538       C  0.89889573  0.98410933  0.30513739    -0.24200
H2539       H  0.89734145  0.84477945  0.33983953     0.05000
H2540       H  0.93691674  0.84839861  0.33043393     0.08200
H2541       H  0.90916433  0.83993068  0.30126208     0.08200
H2542       H  0.90007435  0.99584819  0.32742292     0.08200
H2543       H  0.87678372  0.98926188  0.29418138     0.08200
H2544       H  0.91723398  0.99332000  0.29045316     0.05000
C2545       C  0.74025203  0.01223324  0.26924463    -0.20800
C2546       C  0.75209919  0.98277696  0.27397043    -0.07400
C2547       C  0.76041465  0.96518758  0.24814545     0.13500
C2548       C  0.75814959  0.97797450  0.21897263    -0.20900
C2549       C  0.74899477  0.00822599  0.21465640    -0.07400
C2550       C  0.73934967  0.02538989  0.24004966     0.13500
C2551       C  0.72823750  0.05758361  0.23636995    -0.24200
H2552       H  0.73355442  0.02583650  0.28869634     0.14700
H2553       H  0.76524454  0.96469438  0.19946117     0.14800
C2554       C  0.77192410  0.93295703  0.25084423    -0.24200
H2555       H  0.72088501  0.06759554  0.25837576     0.05000
H2556       H  0.70854082  0.05806711  0.22064342     0.08200
H2557       H  0.74669907  0.07193616  0.22703356     0.08200
H2558       H  0.75548850  0.91918205  0.26407344     0.08200
H2559       H  0.79450724  0.93257730  0.26201634     0.08200
H2560       H  0.77480866  0.92202986  0.22825764     0.05000
C2561       C  0.83847541  0.08057055  0.35510442    -0.20800
C2562       C  0.82565414  0.05668590  0.33879086    -0.07400
C2563       C  0.83395966  0.05198270  0.30804093     0.13500
C2564       C  0.85733067  0.06947087  0.29531821    -0.20900
C2565       C  0.87222720  0.09134511  0.31278747    -0.07400
C2566       C  0.86139618  0.09831166  0.34236094     0.13500
C2567       C  0.87402150  0.12418039  0.36083676    -0.24200
H2568       H  0.83153657  0.08436833  0.37845761     0.14700
H2569       H  0.86528891  0.06472520  0.27246599     0.14800
C2570       C  0.81950751  0.02749973  0.28917879    -0.24200
H2571       H  0.86145919  0.12735929  0.38253476     0.05000
H2572       H  0.87201106  0.14564247  0.34778992     0.08200
H2573       H  0.89810577  0.11969295  0.36669771     0.08200
H2574       H  0.79494138  0.03255389  0.28703543     0.08200
H2575       H  0.82267617  0.00499822  0.30008853     0.08200
H2576       H  0.82935492  0.02633652  0.26595114     0.05000
C2577       C  0.61757668  0.93589596  0.68071718    -0.20800
C2578       C  0.63437581  0.91820030  0.66014427    -0.07400
C2579       C  0.62559686  0.88764618  0.65487318     0.13500
C2580       C  0.60219214  0.87484572  0.67234528    -0.20900
C2581       C  0.58672295  0.89187814  0.69441680    -0.07400
C2582       C  0.59390623  0.92308981  0.69800484     0.13500
C2583       C  0.57772705  0.94267374  0.72099164    -0.24200
H2584       H  0.62399195  0.95937775  0.68437304     0.14700
H2585       H  0.59651674  0.85107446  0.66941390     0.14800
C2586       C  0.64053987  0.86839523  0.63061329    -0.24200
H2587       H  0.58666339  0.96623894  0.72136277     0.05000
H2588       H  0.58028636  0.93302794  0.74404017     0.08200
H2589       H  0.55336844  0.94382220  0.71510335     0.08200
H2590       H  0.66473968  0.86405219  0.63621066     0.08200
H2591       H  0.63893238  0.88009969  0.60836122     0.08200
H2592       H  0.62935532  0.84593961  0.62827039     0.05000
C2593       C  0.77345518  0.00057135  0.51959716    -0.20800
C2594       C  0.74191457  0.99772185  0.52377000    -0.07400
C2595       C  0.72282760  0.99920362  0.49793489     0.13500
C2596       C  0.73581350  0.00193504  0.46871125    -0.20900
C2597       C  0.76752345  0.00250275  0.46434187    -0.07400
C2598       C  0.78651002  0.00251675  0.49035947     0.13500
C2599       C  0.82060148  0.00466440  0.48757871    -0.24200
H2600       H  0.78814782  0.99973097  0.53931023     0.14700
H2601       H  0.72108644  0.00206412  0.44901356     0.14800
C2602       C  0.68871400  0.99822326  0.50104312    -0.24200
H2603       H  0.83165870  0.00654098  0.51014733     0.05000
H2604       H  0.82671356  0.02511279  0.47419463     0.08200
H2605       H  0.82992598  0.98403385  0.47636625     0.08200
H2606       H  0.68088597  0.01674098  0.51638114     0.08200
H2607       H  0.68154876  0.97603298  0.51039261     0.08200
H2608       H  0.67723473  0.00119609  0.47880254     0.05000
C2609       C  0.61106074  0.04645152  0.65056048    -0.20800
C2610       C  0.61644889  0.06411349  0.67663241    -0.07400
C2611       C  0.64668409  0.06670698  0.68720306     0.13500
C2612       C  0.67039478  0.05221734  0.67093665    -0.20900
C2613       C  0.66479350  0.03636055  0.64367768    -0.07400
C2614       C  0.63441674  0.03411529  0.63314808     0.13500
C2615       C  0.62553475  0.01943333  0.60333308    -0.24200
H2616       H  0.58804665  0.04332465  0.64245702     0.14700
H2617       H  0.69347229  0.05361528  0.67938971     0.14800
C2618       C  0.65420730  0.08440015  0.71536452    -0.24200
H2619       H  0.60075201  0.02125723  0.59878331     0.05000
H2620       H  0.63109373  0.99487304  0.60340392     0.08200
H2621       H  0.63725499  0.03096883  0.58423587     0.08200
H2622       H  0.64180511  0.07456828  0.73494943     0.08200
H2623       H  0.64768693  0.10861437  0.71242214     0.08200
H2624       H  0.67891057  0.08353016  0.72053932     0.05000
C2625       C  0.60500640  0.06007630  0.82667037    -0.20800
C2626       C  0.63407202  0.07219116  0.82108880    -0.07400
C2627       C  0.63714185  0.09535925  0.79886919     0.13500
C2628       C  0.61132886  0.10638510  0.78430715    -0.20900
C2629       C  0.58218932  0.09483553  0.79002894    -0.07400
C2630       C  0.57909187  0.07061455  0.81091444     0.13500
C2631       C  0.54888418  0.05581100  0.81675073    -0.24200
H2632       H  0.60247783  0.04257743  0.84371830     0.14700
H2633       H  0.61430392  0.12420040  0.76762790     0.14800
C2634       C  0.66736120  0.10888555  0.78954541    -0.24200
H2635       H  0.55051656  0.03786665  0.83438179     0.05000
H2636       H  0.54081049  0.04491868  0.79556448     0.08200
H2637       H  0.53207403  0.07303795  0.82458551     0.08200
H2638       H  0.68332011  0.09054792  0.78244485     0.08200
H2639       H  0.67708539  0.12233199  0.80847919     0.08200
H2640       H  0.66514056  0.12471811  0.77005554     0.05000
C2641       C  0.68700796  0.16715503  0.95037217    -0.20800
C2642       C  0.65699225  0.17457960  0.94233672    -0.07400
C2643       C  0.64450219  0.16195652  0.91586498     0.13500
C2644       C  0.66115602  0.13971692  0.89989735    -0.20900
C2645       C  0.68978335  0.12949774  0.91018385    -0.07400
C2646       C  0.70351958  0.14447857  0.93493440     0.13500
C2647       C  0.73414413  0.13554647  0.94733407    -0.24200
H2648       H  0.69665968  0.17734041  0.97046196     0.14700
H2649       H  0.65077293  0.12854697  0.88058182     0.14800
C2650       C  0.61299960  0.17063513  0.90563203    -0.24200
H2651       H  0.74912270  0.15573635  0.94788853     0.05000
H2652       H  0.74554865  0.11776849  0.93356909     0.08200
H2653       H  0.73148105  0.12698311  0.97089017     0.08200
H2654       H  0.61201342  0.19547143  0.90129205     0.08200
H2655       H  0.59613939  0.16479877  0.92347004     0.08200
H2656       H  0.60658682  0.15863200  0.88440492     0.05000
C2657       C  0.74041592  0.97732110  0.98239270    -0.20800
C2658       C  0.74273372  0.00488552  0.96630284    -0.07400
C2659       C  0.75879166  0.02902773  0.97978388     0.13500
C2660       C  0.77294079  0.02484203  0.00795439    -0.20900
C2661       C  0.76900109  0.99838880  0.02543467    -0.07400
C2662       C  0.75244549  0.97411394  0.01218354     0.13500
C2663       C  0.74774160  0.94475580  0.02895258    -0.24200
H2664       H  0.72827851  0.95861953  0.97205505     0.14700
H2665       H  0.78532020  0.04371862  0.01733082     0.14800
C2666       C  0.76032815  0.05986852  0.96504712    -0.24200
H2667       H  0.73567852  0.92778886  0.01476177     0.05000
H2668       H  0.73376470  0.94884461  0.04957827     0.08200
H2669       H  0.77008939  0.93493328  0.03550644     0.08200
H2670       H  0.73709306  0.06968170  0.96359365     0.08200
H2671       H  0.76987821  0.05786191  0.94197429     0.08200
H2672       H  0.77466906  0.07598917  0.97806562     0.05000
C2673       C  0.72041223  0.99704670  0.76236197    -0.20800
C2674       C  0.74761095  0.00790783  0.77492748    -0.07400
C2675       C  0.77464969  0.00535303  0.75760709     0.13500
C2676       C  0.77371650  0.99243150  0.72813518    -0.20900
C2677       C  0.74649565  0.98120609  0.71563967    -0.07400
C2678       C  0.71945667  0.98359150  0.73329835     0.13500
C2679       C  0.68909726  0.97315305  0.72132274    -0.24200
H2680       H  0.69962849  0.99902710  0.77555294     0.14700
H2681       H  0.79440890  0.99105541  0.71477692     0.14800
C2682       C  0.80426726  0.01724585  0.76972994    -0.24200
H2683       H  0.67027034  0.97829011  0.73743266     0.05000
H2684       H  0.68942452  0.94819041  0.71772556     0.08200
H2685       H  0.68392356  0.98483390  0.69959222     0.08200
H2686       H  0.81056626  0.00478776  0.79069681     0.08200
H2687       H  0.80195524  0.04184219  0.77497967     0.08200
H2688       H  0.82305838  0.01435150  0.75305938     0.05000
C2689       C  0.79408254  0.11326438  0.88767963    -0.20800
C2690       C  0.80265375  0.08305024  0.89322722    -0.07400
C2691       C  0.82550531  0.07710749  0.91510729     0.13500
C2692       C  0.83941797  0.10172008  0.93023120    -0.20900
C2693       C  0.83069016  0.13194105  0.92425891    -0.07400
C2694       C  0.80688218  0.13752594  0.90333705     0.13500
C2695       C  0.79401722  0.16893731  0.89751347    -0.24200
H2696       H  0.77660990  0.11819588  0.87111268     0.14700
H2697       H  0.85773236  0.09739511  0.94609482     0.14800
C2698       C  0.83616687  0.04522426  0.92171700    -0.24200
H2699       H  0.77251997  0.16807712  0.88434099     0.05000
H2700       H  0.81028147  0.18268947  0.88410948     0.08200
H2701       H  0.78883048  0.18045577  0.91936569     0.08200
H2702       H  0.84410932  0.03421961  0.90040732     0.08200
H2703       H  0.81745333  0.03170913  0.93172870     0.08200
H2704       H  0.85530124  0.04498961  0.93813435     0.05000
C2705       C  0.64133502  0.96888095  0.83994449    -0.20800
C2706       C  0.67013362  0.95593728  0.84473768    -0.07400
C2707       C  0.67738250  0.92782762  0.83079524     0.13500
C2708       C  0.65490930  0.91270946  0.81382426    -0.20900
C2709       C  0.62589238  0.92561861  0.80990045    -0.07400
C2710       C  0.61959488  0.95468727  0.82191328     0.13500
C2711       C  0.58986013  0.97089517  0.81574627    -0.24200
H2712       H  0.63552649  0.99030351  0.85039731     0.14700
H2713       H  0.65943470  0.89010900  0.80503114     0.14800
C2714       C  0.70795621  0.91294275  0.83523693    -0.24200
H2715       H  0.58997302  0.99445745  0.82458581     0.05000
H2716       H  0.57065175  0.95911817  0.82689156     0.08200
H2717       H  0.58585536  0.97205195  0.79089301     0.08200
H2718       H  0.71240163  0.90993087  0.85985850     0.08200
H2719       H  0.72605680  0.92718749  0.82507598     0.08200
H2720       H  0.70908131  0.89023777  0.82422643     0.05000
C2721       C  0.34557968  0.59331111  0.42981925    -0.20800
C2722       C  0.33373289  0.62306059  0.42946630    -0.07400
C2723       C  0.31012414  0.63046786  0.40889306     0.13500
C2724       C  0.29812002  0.60770899  0.39068799    -0.20900
C2725       C  0.30727123  0.57736374  0.39368036    -0.07400
C2726       C  0.33264207  0.57026511  0.41200563     0.13500
C2727       C  0.34752229  0.53935740  0.41194652    -0.24200
H2728       H  0.36496636  0.58800082  0.44405852     0.14700
H2729       H  0.28012474  0.61361268  0.37503521     0.14800
C2730       C  0.29728396  0.66222034  0.40542190    -0.24200
H2731       H  0.34784805  0.52983696  0.43524650     0.05000
H2732       H  0.33600738  0.52312152  0.39658544     0.08200
H2733       H  0.37140315  0.54155665  0.40402275     0.08200
H2734       H  0.31566330  0.67831094  0.39931669     0.08200
H2735       H  0.28603329  0.66941512  0.42685558     0.08200
H2736       H  0.27980041  0.66356268  0.38730455     0.05000
C2737       C  0.40776139  0.65371325  0.36189071    -0.20800
C2738       C  0.42189425  0.67687658  0.37887872    -0.07400
C2739       C  0.44954906  0.68921395  0.36853364     0.13500
C2740       C  0.46344065  0.67656261  0.34284401    -0.20900
C2741       C  0.45095778  0.65129712  0.32786246    -0.07400
C2742       C  0.42228536  0.64041847  0.33666673     0.13500
C2743       C  0.40811089  0.61368830  0.32085024    -0.24200
H2744       H  0.38624152  0.64455277  0.36960727     0.14700
H2745       H  0.48552340  0.68491767  0.33574536     0.14800
C2746       C  0.46465940  0.71541880  0.38446287    -0.24200
H2747       H  0.38569254  0.60784257  0.33089031     0.05000
H2748       H  0.42323460  0.59349587  0.32274844     0.08200
H2749       H  0.40466638  0.61914841  0.29649862     0.08200
H2750       H  0.47138726  0.70876715  0.40778889     0.08200
H2751       H  0.44873601  0.73505801  0.38536033     0.08200
H2752       H  0.48557535  0.72281797  0.37241713     0.05000
C2753       C  0.38424721  0.80751063  0.36445955    -0.20800
C2754       C  0.41181644  0.82269713  0.36984021    -0.07400
C2755       C  0.42052799  0.82815368  0.40043879     0.13500
C2756       C  0.40337547  0.81511604  0.42415059    -0.20900
C2757       C  0.37831789  0.79670225  0.41783036    -0.07400
C2758       C  0.36666407  0.79623494  0.38808089     0.13500
C2759       C  0.33603407  0.78288015  0.38057582    -0.24200
H2760       H  0.37566137  0.80482628  0.34157165     0.14700
H2761       H  0.41039332  0.81794747  0.44746286     0.14800
C2762       C  0.44757770  0.84739848  0.40845439    -0.24200
H2763       H  0.32207789  0.80010485  0.36847010     0.05000
H2764       H  0.32319857  0.77621007  0.40123072     0.08200
H2765       H  0.33900970  0.76266416  0.36572150     0.08200
H2766       H  0.44436516  0.87073793  0.39943605     0.08200
H2767       H  0.46862335  0.83717019  0.39881574     0.08200
H2768       H  0.45065964  0.84920979  0.43341451     0.05000
C2769       C  0.33323486  0.64470982  0.53604476    -0.20800
C2770       C  0.35294615  0.66592027  0.54961971    -0.07400
C2771       C  0.34996836  0.67192663  0.58094796     0.13500
C2772       C  0.33063758  0.65332604  0.59839728    -0.20900
C2773       C  0.31532158  0.62871156  0.58513770    -0.07400
C2774       C  0.31449467  0.62611162  0.55344351     0.13500
C2775       C  0.29449988  0.60308435  0.53813719    -0.24200
H2776       H  0.33348294  0.64158791  0.51164513     0.14700
H2777       H  0.32913103  0.65666153  0.62264248     0.14800
C2778       C  0.36815355  0.69641692  0.59617911    -0.24200
H2779       H  0.29630779  0.60417697  0.51299737     0.05000
H2780       H  0.27039452  0.60722250  0.54460384     0.08200
H2781       H  0.30127245  0.58004632  0.54543277     0.08200
H2782       H  0.36212284  0.71884604  0.58632022     0.08200
H2783       H  0.39282283  0.69198335  0.59287182     0.08200
H2784       H  0.36351424  0.69739946  0.62096103     0.05000
C2785       C  0.58356785  0.84810495  0.36572214    -0.20800
C2786       C  0.58317089  0.81638313  0.36973918    -0.07400
C2787       C  0.56394596  0.79867399  0.35101987     0.13500
C2788       C  0.54456390  0.81359442  0.33030059    -0.20900
C2789       C  0.54336962  0.84553935  0.32857187    -0.07400
C2790       C  0.56403941  0.86287398  0.34557509     0.13500
C2791       C  0.56564947  0.89701528  0.34273869    -0.24200
H2792       H  0.59823527  0.86176694  0.37967435     0.14700
H2793       H  0.52877524  0.80027085  0.31695063     0.14800
C2794       C  0.56141951  0.76461811  0.35345717    -0.24200
H2795       H  0.58468380  0.90656784  0.35618996     0.05000
H2796       H  0.54437260  0.90771130  0.35121497     0.08200
H2797       H  0.56929100  0.90333949  0.31861167     0.08200
H2798       H  0.53751295  0.75841382  0.35863616     0.08200
H2799       H  0.57574797  0.75472989  0.37148521     0.08200
H2800       H  0.56805065  0.75403306  0.33149847     0.05000
C2801       C  0.66388531  0.88767226  0.40198409    -0.20800
C2802       C  0.67699876  0.87113124  0.42582692    -0.07400
C2803       C  0.70585226  0.87919726  0.43698295     0.13500
C2804       C  0.72105256  0.90378178  0.42371584    -0.20900
C2805       C  0.70854069  0.91907864  0.39869304    -0.07400
C2806       C  0.67961048  0.91127949  0.38785545     0.13500
C2807       C  0.66586173  0.92711087  0.36082534    -0.24200
H2808       H  0.64205393  0.88100055  0.39330661     0.14700
H2809       H  0.74367368  0.90968163  0.43142582     0.14800
C2810       C  0.72152511  0.86052614  0.46099431    -0.24200
H2811       H  0.64292647  0.91817217  0.35541248     0.05000
H2812       H  0.68059590  0.92371978  0.34058123     0.08200
H2813       H  0.66369163  0.95181019  0.36559211     0.08200
H2814       H  0.72478786  0.83689592  0.45268454     0.08200
H2815       H  0.70752583  0.86012107  0.48190733     0.08200
H2816       H  0.74421414  0.86984184  0.46683039     0.05000
C2817       C  0.51535990  0.76914582  0.46878725    -0.20800
C2818       C  0.53777815  0.75708036  0.48809124    -0.07400
C2819       C  0.52907101  0.73390312  0.50882868     0.13500
C2820       C  0.49846438  0.72404174  0.50971615    -0.20900
C2821       C  0.47617714  0.73697767  0.49084115    -0.07400
C2822       C  0.48509803  0.75957160  0.46992488     0.13500
C2823       C  0.46277243  0.77387416  0.44847836    -0.24200
H2824       H  0.52139872  0.78646002  0.45241582     0.14700
H2825       H  0.49181366  0.70638006  0.52547269     0.14800
C2826       C  0.55159351  0.71932324  0.53005478    -0.24200
H2827       H  0.47392982  0.78911546  0.43182169     0.05000
H2828       H  0.44669420  0.78760004  0.46209847     0.08200
H2829       H  0.45031339  0.75616825  0.43569805     0.08200
H2830       H  0.56170457  0.73686266  0.54504493     0.08200
H2831       H  0.56974971  0.70769734  0.51679612     0.08200
H2832       H  0.54070125  0.70204194  0.54480496     0.05000
C2833       C  0.61954256  0.70397254  0.37314702    -0.20800
C2834       C  0.60910732  0.70121448  0.40324102    -0.07400
C2835       C  0.58224837  0.68429080  0.40888830     0.13500
C2836       C  0.56713318  0.67048343  0.38440317    -0.20900
C2837       C  0.57733290  0.67418726  0.35447180    -0.07400
C2838       C  0.60389537  0.69116721  0.34877357     0.13500
C2839       C  0.61647673  0.69537137  0.31713045    -0.24200
H2840       H  0.63976385  0.71709147  0.36831964     0.14700
H2841       H  0.54689640  0.65711759  0.38853686     0.14800
C2842       C  0.56911383  0.68062444  0.44030588    -0.24200
H2843       H  0.63817686  0.70818371  0.31719584     0.05000
H2844       H  0.60008480  0.70842487  0.30309168     0.08200
H2845       H  0.62098629  0.67289703  0.30651510     0.08200
H2846       H  0.56172428  0.70304481  0.44932648     0.08200
H2847       H  0.58634585  0.67031269  0.45557802     0.08200
H2848       H  0.54885503  0.66564414  0.44032929     0.05000
C2849       C  0.66054931  0.85645921  0.52579558    -0.20800
C2850       C  0.66207397  0.82645612  0.53622989    -0.07400
C2851       C  0.68233837  0.81936437  0.56021242     0.13500
C2852       C  0.69852091  0.84311505  0.57451586    -0.20900
C2853       C  0.69620089  0.87318828  0.56394999    -0.07400
C2854       C  0.67883652  0.87918300  0.53769031     0.13500
C2855       C  0.67948043  0.90958048  0.52173421    -0.24200
H2856       H  0.64503300  0.86252049  0.50783826     0.14700
H2857       H  0.71178590  0.83845173  0.59469251     0.14800
C2858       C  0.68562378  0.78740183  0.57185026    -0.24200
H2859       H  0.66819575  0.90851414  0.49921411     0.05000
H2860       H  0.70342360  0.91650764  0.51779267     0.08200
H2861       H  0.66736590  0.92720507  0.53512596     0.08200
H2862       H  0.69520068  0.77253277  0.55380462     0.08200
H2863       H  0.66307171  0.77868159  0.57901613     0.08200
H2864       H  0.70118409  0.78625601  0.59164457     0.05000
C2865       C  0.92590546  0.85533091  0.61837288    -0.20800
C2866       C  0.92670637  0.82340918  0.61688075    -0.07400
C2867       C  0.93696923  0.80692757  0.64241539     0.13500
C2868       C  0.94833879  0.82298401  0.66764756    -0.20900
C2869       C  0.94889639  0.85503686  0.66824643    -0.07400
C2870       C  0.93584453  0.87127628  0.64387454     0.13500
C2871       C  0.93188737  0.90539097  0.64444117    -0.24200
H2872       H  0.91748165  0.86819256  0.59917567     0.14700
H2873       H  0.95832360  0.81037934  0.68625765     0.14800
C2874       C  0.93765590  0.77272038  0.64260892    -0.24200
H2875       H  0.91772430  0.91349674  0.62519884     0.05000
H2876       H  0.95417352  0.91689779  0.64254369     0.08200
H2877       H  0.92026053  0.91237225  0.66576838     0.08200
H2878       H  0.95176037  0.76436082  0.62344399     0.08200
H2879       H  0.91423670  0.76369212  0.64050649     0.08200
H2880       H  0.94753720  0.76365058  0.66396989     0.05000
C2881       C  0.85078416  0.88447796  0.59344440    -0.20800
C2882       C  0.84703059  0.87964866  0.56209764    -0.07400
C2883       C  0.82818302  0.89957574  0.54548320     0.13500
C2884       C  0.81105188  0.92169864  0.56139783    -0.20900
C2885       C  0.81249092  0.92398211  0.59335081    -0.07400
C2886       C  0.83400147  0.90639458  0.60922819     0.13500
C2887       C  0.83900999  0.91010993  0.64290873    -0.24200
H2888       H  0.86537423  0.86939569  0.60625922     0.14700
H2889       H  0.79479555  0.93560699  0.54913817     0.14800
C2890       C  0.82453882  0.89623860  0.51164908    -0.24200
H2891       H  0.85838668  0.89600665  0.65099817     0.05000
H2892       H  0.81857475  0.90301081  0.65580322     0.08200
H2893       H  0.84422405  0.93422112  0.64810974     0.08200
H2894       H  0.81576848  0.87328877  0.50610558     0.08200
H2895       H  0.84686766  0.89941813  0.50028928     0.08200
H2896       H  0.80840951  0.91335219  0.50235790     0.05000
C2897       C  0.77708403  0.73394227  0.49197075    -0.20800
C2898       C  0.78509458  0.76005425  0.50876235    -0.07400
C2899       C  0.76313619  0.78383888  0.51169642     0.13500
C2900       C  0.73495725  0.78121043  0.49696663    -0.20900
C2901       C  0.72753131  0.75551611  0.47978161    -0.07400
C2902       C  0.74854510  0.73134752  0.47767650     0.13500
C2903       C  0.74126422  0.70335468  0.45947535    -0.24200
H2904       H  0.79341917  0.71557943  0.48953103     0.14700
H2905       H  0.71844760  0.79952857  0.49876312     0.14800
C2906       C  0.76910915  0.81265546  0.52930105    -0.24200
H2907       H  0.76039769  0.68677602  0.45958633     0.05000
H2908       H  0.73657307  0.70975861  0.43556030     0.08200
H2909       H  0.72094030  0.69204374  0.46917612     0.08200
H2910       H  0.78897836  0.82467930  0.51956223     0.08200
H2911       H  0.77328847  0.80719784  0.55353117     0.08200
H2912       H  0.74947067  0.82862799  0.52848911     0.05000
C2913       C  0.94534985  0.68424845  0.60687075    -0.20800
C2914       C  0.92490188  0.66971377  0.62635796    -0.07400
C2915       C  0.89325592  0.67090127  0.61991626     0.13500
C2916       C  0.88320386  0.68617590  0.59418419    -0.20900
C2917       C  0.90324724  0.70248259  0.57591451    -0.07400
C2918       C  0.93490646  0.70179519  0.58243954     0.13500
C2919       C  0.95826405  0.72079708  0.56623803    -0.24200
H2920       H  0.96946971  0.68374075  0.61201914     0.14700
H2921       H  0.85902393  0.68709517  0.58935074     0.14800
C2922       C  0.86942065  0.65688161  0.64006807    -0.24200
H2923       H  0.97021181  0.73547468  0.58281097     0.05000
H2924       H  0.94853713  0.73590617  0.54890214     0.08200
H2925       H  0.97546443  0.70574758  0.55540958     0.08200
H2926       H  0.86840455  0.66890927  0.66220169     0.08200
H2927       H  0.87494498  0.63279724  0.64360004     0.08200
H2928       H  0.84630796  0.65806554  0.62998549     0.05000
C2929       C  0.87754936  0.85838502  0.43616510    -0.20800
C2930       C  0.85993458  0.83322379  0.44413556    -0.07400
C2931       C  0.82859479  0.83310574  0.43637906     0.13500
C2932       C  0.81576657  0.85873761  0.42219251    -0.20900
C2933       C  0.83316135  0.88470831  0.41615677    -0.07400
C2934       C  0.86481506  0.88424373  0.42307905     0.13500
C2935       C  0.88599167  0.91069081  0.41749832    -0.24200
H2936       H  0.90159603  0.85849968  0.44151816     0.14700
H2937       H  0.79177293  0.85879387  0.41657963     0.14800
C2938       C  0.80813703  0.80680205  0.44374633    -0.24200
H2939       H  0.90990291  0.90535245  0.42369416     0.05000
H2940       H  0.87896673  0.93046455  0.43159240     0.08200
H2941       H  0.88607842  0.91686648  0.39313671     0.08200
H2942       H  0.80717368  0.80379786  0.46864490     0.08200
H2943       H  0.81686053  0.78576910  0.43275005     0.08200
H2944       H  0.78448771  0.81063429  0.43573019     0.05000
C2945       C  0.17379007  0.60478554  0.56627243    -0.20800
C2946       C  0.18322920  0.63504954  0.56907980    -0.07400
C2947       C  0.20715072  0.64203638  0.58915721     0.13500
C2948       C  0.21751129  0.62006261  0.60932570    -0.20900
C2949       C  0.20806216  0.58977186  0.60722653    -0.07400
C2950       C  0.18668896  0.58177543  0.58446549     0.13500
C2951       C  0.17659961  0.54949609  0.57981820    -0.24200
H2952       H  0.15543261  0.59937677  0.55083277     0.14700
H2953       H  0.23426691  0.62668455  0.62599686     0.14800
C2954       C  0.22270453  0.67242639  0.58943584    -0.24200
H2955       H  0.15822292  0.54786858  0.56264282     0.05000
H2956       H  0.16792244  0.53999668  0.60148648     0.08200
H2957       H  0.19602311  0.53571452  0.57141482     0.08200
H2958       H  0.21762804  0.68452564  0.61100889     0.08200
H2959       H  0.21580770  0.68661163  0.56991356     0.08200
H2960       H  0.24769720  0.66905574  0.58741455     0.05000
C2961       C  0.06371517  0.62863501  0.64467596    -0.20800
C2962       C  0.04485864  0.64666331  0.66294164    -0.07400
C2963       C  0.04283384  0.67829246  0.65744050     0.13500
C2964       C  0.05921360  0.69093719  0.63327107    -0.20900
C2965       C  0.07708398  0.67268876  0.61414690    -0.07400
C2966       C  0.08008777  0.64115179  0.62051564     0.13500
C2967       C  0.10108940  0.62047295  0.60275205    -0.24200
H2968       H  0.06524157  0.60443760  0.64909625     0.14700
H2969       H  0.05743084  0.71505575  0.62878410     0.14800
C2970       C  0.02258589  0.69861673  0.67619711    -0.24200
H2971       H  0.10199920  0.59720965  0.61247819     0.05000
H2972       H  0.12449519  0.62970576  0.60329499     0.08200
H2973       H  0.09319215  0.61820655  0.57896872     0.08200
H2974       H  0.03068961  0.69824951  0.69990455     0.08200
H2975       H  0.99868468  0.69067511  0.67508951     0.08200
H2976       H  0.02312020  0.72253468  0.66842811     0.05000
C2977       C  0.00147939  0.77756889  0.48890949    -0.20800
C2978       C  0.97708911  0.75724115  0.49047065    -0.07400
C2979       C  0.98361311  0.72558033  0.48888452     0.13500
C2980       C  0.01415727  0.71559411  0.48946633    -0.20900
C2981       C  0.03867154  0.73603184  0.48962377    -0.07400
C2982       C  0.03191965  0.76766826  0.48736634     0.13500
C2983       C  0.05536821  0.79242548  0.48445377    -0.24200
H2984       H  0.99670627  0.80178635  0.48916147     0.14700
H2985       H  0.01886674  0.69139264  0.49035289     0.14800
C2986       C  0.95956065  0.70130375  0.48754041    -0.24200
H2987       H  0.04975509  0.80677157  0.46449116     0.05000
H2988       H  0.07880806  0.78442913  0.48083496     0.08200
H2989       H  0.05482960  0.80697107  0.50508263     0.08200
H2990       H  0.93613656  0.71021833  0.48714672     0.08200
H2991       H  0.96171834  0.68590387  0.50734086     0.08200
H2992       H  0.96283184  0.68763044  0.46656652     0.05000
C2993       C  0.27683273  0.74644790  0.53151897    -0.20800
C2994       C  0.28156735  0.74316161  0.49998845    -0.07400
C2995       C  0.25611713  0.74699451  0.48040270     0.13500
C2996       C  0.22713928  0.75258018  0.49290709    -0.20900
C2997       C  0.22228579  0.75364027  0.52436722    -0.07400
C2998       C  0.24767861  0.75158528  0.54388661     0.13500
C2999       C  0.24433048  0.75573984  0.57771471    -0.24200
H3000       H  0.29598836  0.74440002  0.54682198     0.14700
H3001       H  0.20775890  0.75444754  0.47789180     0.14800
C3002       C  0.25864918  0.74465794  0.44630864    -0.24200
H3003       H  0.26669116  0.75504646  0.58938241     0.05000
H3004       H  0.23012309  0.73758195  0.58761351     0.08200
H3005       H  0.23359181  0.77813359  0.58251300     0.08200
H3006       H  0.26626833  0.72148687  0.43973740     0.08200
H3007       H  0.27487290  0.76187055  0.43767475     0.08200
H3008       H  0.23648575  0.74878746  0.43494077     0.05000
C3009       C  0.18282267  0.65209563  0.40558270    -0.20800
C3010       C  0.20235570  0.63201421  0.42089962    -0.07400
C3011       C  0.20976086  0.63759076  0.45150503     0.13500
C3012       C  0.19484083  0.66126013  0.46703310    -0.20900
C3013       C  0.17229900  0.67870124  0.45261490    -0.07400
C3014       C  0.16733555  0.67525189  0.42130543     0.13500
C3015       C  0.14475995  0.69514629  0.40501315    -0.24200
H3016       H  0.17777152  0.64808175  0.38190035     0.14700
H3017       H  0.19906725  0.66461250  0.49104190     0.14800
C3018       C  0.23210804  0.61757087  0.46805563    -0.24200
H3019       H  0.14439686  0.69021329  0.38035251     0.05000
H3020       H  0.15106813  0.71936658  0.40799433     0.08200
H3021       H  0.12158809  0.69150144  0.41436108     0.08200
H3022       H  0.25446508  0.61817326  0.45628119     0.08200
H3023       H  0.22376680  0.59381572  0.46855307     0.08200
H3024       H  0.23546990  0.62520150  0.49186080     0.05000
C3025       C  0.07433817  0.84578697  0.60079188    -0.20800
C3026       C  0.05545965  0.83046142  0.62140785    -0.07400
C3027       C  0.04959846  0.79935354  0.61726794     0.13500
C3028       C  0.06551842  0.78337476  0.59466625    -0.20900
C3029       C  0.08713471  0.79800399  0.57640676    -0.07400
C3030       C  0.09029900  0.82976184  0.57813559     0.13500
C3031       C  0.11138050  0.84632262  0.55699484    -0.24200
H3032       H  0.07824287  0.86990000  0.60377929     0.14700
H3033       H  0.06240531  0.75907337  0.59242144     0.14800
C3034       C  0.02749013  0.78296760  0.63750116    -0.24200
H3035       H  0.11074256  0.87123071  0.56103322     0.05000
H3036       H  0.10443165  0.84211095  0.53314134     0.08200
H3037       H  0.13507593  0.83813015  0.56024038     0.08200
H3038       H  0.00508087  0.79465803  0.63679800     0.08200
H3039       H  0.03593750  0.78276041  0.66123172     0.08200
H3040       H  0.02407548  0.75921241  0.62986780     0.05000
C3041       C  0.64858397  0.36178222  0.47273560    -0.20800
C3042       C  0.64844476  0.33274868  0.45957913    -0.07400
C3043       C  0.66547501  0.32741988  0.43280974     0.13500
C3044       C  0.68099464  0.35183332  0.41921158    -0.20900
C3045       C  0.67954481  0.38118805  0.43179205    -0.07400
C3046       C  0.66427252  0.38584386  0.45965691     0.13500
C3047       C  0.66434028  0.41613592  0.47593685    -0.24200
H3048       H  0.63586256  0.36600903  0.49334101     0.14700
H3049       H  0.69259586  0.34843855  0.39772191     0.14800
C3050       C  0.66565819  0.29683777  0.41748551    -0.24200
H3051       H  0.65395336  0.41454086  0.49888788     0.05000
H3052       H  0.65100079  0.43330471  0.46320329     0.08200
H3053       H  0.68806993  0.42411499  0.47881061     0.08200
H3054       H  0.64200172  0.29002770  0.41205970     0.08200
H3055       H  0.67611006  0.27966523  0.43259817     0.08200
H3056       H  0.67894495  0.29713568  0.39600826     0.05000
C3057       C  0.60989434  0.44269358  0.31165285    -0.20800
C3058       C  0.62279698  0.42706363  0.33591287    -0.07400
C3059       C  0.61114211  0.39818390  0.34410968     0.13500
C3060       C  0.58869337  0.38448151  0.32599724    -0.20900
C3061       C  0.57808377  0.39881532  0.29973110    -0.07400
C3062       C  0.58818501  0.42880022  0.29314357     0.13500
C3063       C  0.57823056  0.44620980  0.26552256    -0.24200
H3064       H  0.61852621  0.46495075  0.30562831     0.14700
H3065       H  0.58143431  0.36148930  0.33085954     0.14800
C3066       C  0.62289960  0.38137769  0.37145269    -0.24200
H3067       H  0.56132313  0.43364312  0.25212356     0.05000
H3068       H  0.56783228  0.46818126  0.27254571     0.08200
H3069       H  0.59820291  0.45096560  0.25084565     0.08200
H3070       H  0.61992117  0.39564997  0.39206055     0.08200
H3071       H  0.64729920  0.37576872  0.36828078     0.08200
H3072       H  0.61057904  0.35972260  0.37517858     0.05000
C3073       C  0.80112273  0.38864046  0.45187263    -0.20800
C3074       C  0.83037695  0.38278257  0.44092716    -0.07400
C3075       C  0.84347818  0.40296078  0.41961699     0.13500
C3076       C  0.82477355  0.42444376  0.40513140    -0.20900
C3077       C  0.79426101  0.42787360  0.41367761    -0.07400
C3078       C  0.78335360  0.41195226  0.43943916     0.13500
C3079       C  0.75303311  0.41827481  0.45409325    -0.24200
H3080       H  0.79163807  0.37420432  0.46941127     0.14700
H3081       H  0.83389334  0.43818565  0.38687726     0.14800
C3082       C  0.87693230  0.40270787  0.41213355    -0.24200
H3083       H  0.73904007  0.39738092  0.45373350     0.05000
H3084       H  0.74035506  0.43684196  0.44288239     0.08200
H3085       H  0.75656957  0.42504298  0.47812415     0.08200
H3086       H  0.88939261  0.38428173  0.42396300     0.08200
H3087       H  0.88698459  0.42466899  0.41927944     0.08200
H3088       H  0.88049035  0.40032247  0.38732243     0.05000
C3089       C  0.62848302  0.53835438  0.35190197    -0.20800
C3090       C  0.65916083  0.54600414  0.34813760    -0.07400
C3091       C  0.66721451  0.56740166  0.32552216     0.13500
C3092       C  0.64413969  0.58099252  0.30794439    -0.20900
C3093       C  0.61344669  0.57301606  0.31172492    -0.07400
C3094       C  0.60564127  0.55109665  0.33402335     0.13500
C3095       C  0.57327284  0.54134985  0.34025144    -0.24200
H3096       H  0.62217175  0.52165274  0.36880315     0.14700
H3097       H  0.65006971  0.59798683  0.29118889     0.14800
C3098       C  0.69973969  0.57664857  0.32023471    -0.24200
H3099       H  0.57180254  0.52481799  0.35922172     0.05000
H3100       H  0.56367215  0.53000535  0.31990871     0.08200
H3101       H  0.55915290  0.56135287  0.34668137     0.08200
H3102       H  0.71325215  0.55695669  0.31193908     0.08200
H3103       H  0.70967099  0.58536040  0.34168170     0.08200
H3104       H  0.70151609  0.59483264  0.30287185     0.05000
C3105       C  0.61615798  0.60384517  0.15603604    -0.20800
C3106       C  0.62219084  0.57297836  0.16207430    -0.07400
C3107       C  0.59981459  0.55548438  0.17680650     0.13500
C3108       C  0.57355922  0.57025844  0.18810683    -0.20900
C3109       C  0.56932968  0.60185642  0.18460626    -0.07400
C3110       C  0.58975697  0.61821821  0.16644857     0.13500
C3111       C  0.58499685  0.65162967  0.16042727    -0.24200
H3112       H  0.63299478  0.61731886  0.14421801     0.14700
H3113       H  0.55813681  0.55782532  0.20270741     0.14800
C3114       C  0.60466912  0.52216985  0.18289369    -0.24200
H3115       H  0.60310597  0.66100306  0.14555961     0.05000
H3116       H  0.58507236  0.66461380  0.18205655     0.08200
H3117       H  0.56280854  0.65507749  0.14892596     0.08200
H3118       H  0.62553727  0.51879196  0.19658299     0.08200
H3119       H  0.60704756  0.50978010  0.16105915     0.08200
H3120       H  0.58525767  0.51217994  0.19553764     0.05000
C3121       C  0.62833314  0.65538615  0.07133470    -0.20800
C3122       C  0.64433238  0.68190132  0.06486165    -0.07400
C3123       C  0.67500737  0.68410229  0.07423462     0.13500
C3124       C  0.68963366  0.65850178  0.08677879    -0.20900
C3125       C  0.67479130  0.63033751  0.08846000    -0.07400
C3126       C  0.64343528  0.62889423  0.08006545     0.13500
C3127       C  0.62565968  0.59960110  0.07718664    -0.24200
H3128       H  0.60477738  0.65397884  0.06414083     0.14700
H3129       H  0.71323633  0.66018680  0.09362945     0.14800
C3130       C  0.69330507  0.71247452  0.06992246    -0.24200
H3131       H  0.60179467  0.60354081  0.06990027     0.05000
H3132       H  0.62448080  0.58732575  0.09896683     0.08200
H3133       H  0.63643033  0.58482525  0.05971441     0.08200
H3134       H  0.67924811  0.73159916  0.06154948     0.08200
H3135       H  0.70317014  0.71957529  0.09198767     0.08200
H3136       H  0.71208098  0.70793567  0.05360648     0.05000
C3137       C  0.76798286  0.51218246  0.24325525    -0.20800
C3138       C  0.74051525  0.52215127  0.23008241    -0.07400
C3139       C  0.71294446  0.51680009  0.24612529     0.13500
C3140       C  0.71362223  0.50143613  0.27410913    -0.20900
C3141       C  0.74101125  0.49184898  0.28736085    -0.07400
C3142       C  0.76859861  0.49764803  0.27188070     0.13500
C3143       C  0.79859242  0.48772002  0.28505548    -0.24200
H3144       H  0.78912423  0.51592261  0.23116099     0.14700
H3145       H  0.69248089  0.49737488  0.28615005     0.14800
C3146       C  0.68241274  0.52624192  0.23363624    -0.24200
H3147       H  0.81784543  0.49296038  0.26958731     0.05000
H3148       H  0.79841207  0.46281146  0.28903825     0.08200
H3149       H  0.80263437  0.49967261  0.30686501     0.08200
H3150       H  0.67907614  0.51583699  0.21091836     0.08200
H3151       H  0.68105496  0.55137432  0.23194064     0.08200
H3152       H  0.66335974  0.51883143  0.24844634     0.05000
C3153       C  0.84678270  0.62162066  0.09956975    -0.20800
C3154       C  0.83237284  0.63792641  0.07612122    -0.07400
C3155       C  0.80166322  0.63181090  0.06920111     0.13500
C3156       C  0.78608457  0.60994396  0.08622933    -0.20900
C3157       C  0.80001671  0.59482798  0.11058982    -0.07400
C3158       C  0.83086185  0.60031722  0.11713126     0.13500
C3159       C  0.84737529  0.58458487  0.14261612    -0.24200
H3160       H  0.87029015  0.62647756  0.10512127     0.14700
H3161       H  0.76261226  0.60494750  0.08079275     0.14800
C3162       C  0.78528161  0.64797930  0.04380287    -0.24200
H3163       H  0.85566239  0.60177803  0.15907916     0.05000
H3164       H  0.86719232  0.57185465  0.13332192     0.08200
H3165       H  0.83276792  0.56831036  0.15504775     0.08200
H3166       H  0.79797836  0.64486478  0.02218282     0.08200
H3167       H  0.78314800  0.67258361  0.04896844     0.08200
H3168       H  0.76192310  0.63904685  0.04054449     0.05000
C3169       C  0.67757725  0.44859862  0.18139990    -0.20800
C3170       C  0.67307294  0.46047286  0.15203027    -0.07400
C3171       C  0.64425258  0.45668193  0.13786260     0.13500
C3172       C  0.62100723  0.44241091  0.15382028    -0.20900
C3173       C  0.62561522  0.43067261  0.18282105    -0.07400
C3174       C  0.65421903  0.43340104  0.19687271     0.13500
C3175       C  0.66047782  0.42147346  0.22829195    -0.24200
H3176       H  0.69926685  0.45157791  0.19264599     0.14700
H3177       H  0.59898119  0.43956395  0.14314067     0.14800
C3178       C  0.63703185  0.46736678  0.10605726    -0.24200
H3179       H  0.67917506  0.40444500  0.22728116     0.05000
H3180       H  0.64034446  0.41058224  0.23876119     0.08200
H3181       H  0.66747762  0.44052562  0.24325891     0.08200
H3182       H  0.65314951  0.45686766  0.08962429     0.08200
H3183       H  0.63807795  0.49250050  0.10474832     0.08200
H3184       H  0.61375697  0.46083873  0.09886716     0.05000
C3185       C  0.82064309  0.32810572  0.56061283    -0.20800
C3186       C  0.85001143  0.33377564  0.54893438    -0.07400
C3187       C  0.86346491  0.36258804  0.55443569     0.13500
C3188       C  0.84649811  0.38509752  0.56928732    -0.20900
C3189       C  0.81697593  0.37966100  0.57965791    -0.07400
C3190       C  0.80411078  0.35066440  0.57622721     0.13500
C3191       C  0.77270488  0.34389896  0.58810573    -0.24200
H3192       H  0.81014643  0.30620899  0.55687355     0.14700
H3193       H  0.85648646  0.40726475  0.57314168     0.14800
C3194       C  0.89551791  0.37037775  0.54492941    -0.24200
H3195       H  0.76573513  0.32026502  0.58276518     0.05000
H3196       H  0.75593730  0.35969123  0.57770238     0.08200
H3197       H  0.77217592  0.34673020  0.61314556     0.08200
H3198       H  0.89735567  0.37095544  0.51981524     0.08200
H3199       H  0.91173778  0.35351518  0.55448709     0.08200
H3200       H  0.90246775  0.39312730  0.55330341     0.05000
C3201       C  0.88217113  0.38594314  0.71285873    -0.20800
C3202       C  0.91198778  0.39585991  0.70727913    -0.07400
C3203       C  0.91654430  0.42012294  0.68662174     0.13500
C3204       C  0.89116689  0.43330791  0.67205775    -0.20900
C3205       C  0.86140676  0.42368031  0.67851372    -0.07400
C3206       C  0.85696670  0.39967093  0.69935390     0.13500
C3207       C  0.82580379  0.38766015  0.70731839    -0.24200
H3208       H  0.87821447  0.36771821  0.72887640     0.14700
H3209       H  0.89451344  0.45151268  0.65586123     0.14800
C3210       C  0.94779482  0.43203425  0.67945109    -0.24200
H3211       H  0.82702573  0.36775085  0.72273912     0.05000
H3212       H  0.81381523  0.38033319  0.68641519     0.08200
H3213       H  0.81235072  0.40544650  0.71926507     0.08200
H3214       H  0.96242590  0.41330761  0.67073725     0.08200
H3215       H  0.95812508  0.44197304  0.70011102     0.08200
H3216       H  0.94704461  0.45015681  0.66194158     0.05000
C3217       C  0.72076728  0.50786449  0.52922806    -0.20800
C3218       C  0.75119164  0.49888438  0.53446230    -0.07400
C3219       C  0.77016494  0.49317579  0.50890379     0.13500
C3220       C  0.75812000  0.49603210  0.47943650    -0.20900
C3221       C  0.72737258  0.50309824  0.47458227    -0.07400
C3222       C  0.70855913  0.50944680  0.49976915     0.13500
C3223       C  0.67555106  0.51777269  0.49558219    -0.24200
H3224       H  0.70597346  0.51257181  0.54839468     0.14700
H3225       H  0.77239657  0.49075853  0.46004114     0.14800
C3226       C  0.80255487  0.48229607  0.51215324    -0.24200
H3227       H  0.66424041  0.52296177  0.51757467     0.05000
H3228       H  0.66320518  0.49864065  0.48485240     0.08200
H3229       H  0.67369990  0.53817991  0.48089343     0.08200
H3230       H  0.80310689  0.46063002  0.52502862     0.08200
H3231       H  0.81624857  0.49975245  0.52403614     0.08200
H3232       H  0.81344804  0.47797559  0.48976237     0.05000
C3233       C  0.66931111  0.39714691  0.62543170    -0.20800
C3234       C  0.68963817  0.41447410  0.60829796    -0.07400
C3235       C  0.69266616  0.40837647  0.57679014     0.13500
C3236       C  0.67634332  0.38436059  0.56354267    -0.20900
C3237       C  0.65780655  0.36554625  0.58120687    -0.07400
C3238       C  0.65332925  0.37281081  0.61236859     0.13500
C3239       C  0.63182132  0.35501131  0.63216544    -0.24200
H3240       H  0.66749251  0.40137471  0.64962554     0.14700
H3241       H  0.67948727  0.37913718  0.53967620     0.14800
C3242       C  0.71422259  0.42631332  0.55729625    -0.24200
H3243       H  0.62975411  0.36503218  0.65524516     0.05000
H3244       H  0.64008396  0.33133336  0.63494242     0.08200
H3245       H  0.60882459  0.35502209  0.62183534     0.08200
H3246       H  0.73774681  0.42435306  0.56617450     0.08200
H3247       H  0.70694460  0.45044141  0.55730866     0.08200
H3248       H  0.71438423  0.41822373  0.53339168     0.05000
C3249       C  0.82031195  0.55756211  0.67860330    -0.20800
C3250       C  0.82120711  0.55153539  0.64720737    -0.07400
C3251       C  0.84604912  0.56189578  0.63006995     0.13500
C3252       C  0.87083101  0.57462696  0.64485530    -0.20900
C3253       C  0.87132305  0.57919410  0.67659092    -0.07400
C3254       C  0.84518090  0.57121963  0.69362851     0.13500
C3255       C  0.84402416  0.57513756  0.72757363    -0.24200
H3256       H  0.80114514  0.54948974  0.69174451     0.14700
H3257       H  0.89007594  0.58117567  0.63093552     0.14800
C3258       C  0.84774591  0.55821717  0.59602528    -0.24200
H3259       H  0.82242223  0.56642118  0.73728108     0.05000
H3260       H  0.84567339  0.59959511  0.73348899     0.08200
H3261       H  0.86309228  0.56241800  0.73822432     0.08200
H3262       H  0.82652351  0.54881798  0.58628052     0.08200
H3263       H  0.86696250  0.54286553  0.58998890     0.08200
H3264       H  0.85157011  0.58074242  0.58538210     0.05000
C3265       C  0.88228697  0.60126819  0.83867007    -0.20800
C3266       C  0.87655088  0.57010244  0.83492158    -0.07400
C3267       C  0.89653618  0.55213224  0.81733847     0.13500
C3268       C  0.92024103  0.56657864  0.80166470    -0.20900
C3269       C  0.92351288  0.59835524  0.80278268    -0.07400
C3270       C  0.90577326  0.61558220  0.82315950     0.13500
C3271       C  0.91136996  0.64897891  0.82856590    -0.24200
H3272       H  0.86727071  0.61493957  0.85268488     0.14700
H3273       H  0.93476188  0.55336977  0.78674151     0.14800
C3274       C  0.89161200  0.51851784  0.81320003    -0.24200
H3275       H  0.89681265  0.65805184  0.84717862     0.05000
H3276       H  0.90627580  0.66242385  0.80792948     0.08200
H3277       H  0.93546857  0.65242298  0.83516402     0.08200
H3278       H  0.86876703  0.51445629  0.80332517     0.08200
H3279       H  0.89330275  0.50680728  0.83543401     0.08200
H3280       H  0.90884418  0.50827922  0.79772567     0.05000
C3281       C  0.85965248  0.63019544  0.91647614    -0.20800
C3282       C  0.82779992  0.62787544  0.91919586    -0.07400
C3283       C  0.81163791  0.65109293  0.93460710     0.13500
C3284       C  0.82808302  0.67434741  0.94917821    -0.20900
C3285       C  0.86007443  0.67505982  0.94813359    -0.07400
C3286       C  0.87585241  0.65357407  0.93045200     0.13500
C3287       C  0.91003595  0.65438937  0.92776389    -0.24200
H3288       H  0.87230470  0.61264658  0.90460898     0.14700
H3289       H  0.81612223  0.69049724  0.96354004     0.14800
C3290       C  0.77758531  0.65013553  0.93787689    -0.24200
H3291       H  0.91881707  0.63612771  0.91260950     0.05000
H3292       H  0.92062094  0.65141510  0.95042595     0.08200
H3293       H  0.91709554  0.67658531  0.91816728     0.08200
H3294       H  0.77091879  0.62875987  0.94935891     0.08200
H3295       H  0.76676448  0.65125769  0.91516596     0.08200
H3296       H  0.76880648  0.66951160  0.95158769     0.05000
C3297       C  0.78982382  0.51057920  0.00006813    -0.20800
C3298       C  0.76876488  0.50580020  0.97656146    -0.07400
C3299       C  0.73798743  0.50007993  0.98443488     0.13500
C3300       C  0.72887889  0.50194199  0.01504087    -0.20900
C3301       C  0.74965787  0.50848317  0.03822514    -0.07400
C3302       C  0.78074374  0.51172772  0.03072300     0.13500
C3303       C  0.80416679  0.51838862  0.05462797    -0.24200
H3304       H  0.81346554  0.51450859  0.99432057     0.14700
H3305       H  0.70508430  0.49916789  0.02089651     0.14800
C3306       C  0.71409616  0.49358901  0.96090938    -0.24200
H3307       H  0.82742692  0.51979168  0.04485025     0.05000
H3308       H  0.80425464  0.50012632  0.07197695     0.08200
H3309       H  0.79891606  0.54056154  0.06541821     0.08200
H3310       H  0.72050374  0.47314338  0.94752669     0.08200
H3311       H  0.71140045  0.51344892  0.94583982     0.08200
H3312       H  0.69154102  0.48917123  0.97138023     0.05000
C3313       C  0.77971826  0.50917556  0.76846941    -0.20800
C3314       C  0.75331133  0.51383362  0.78584930    -0.07400
C3315       C  0.72504340  0.50409914  0.77381650     0.13500
C3316       C  0.72408208  0.49038838  0.74468831    -0.20900
C3317       C  0.75074329  0.48549421  0.72764654    -0.07400
C3318       C  0.77885990  0.49491388  0.73998484     0.13500
C3319       C  0.80841701  0.48913537  0.72364466    -0.24200
H3320       H  0.80151301  0.51598461  0.77766240     0.14700
H3321       H  0.70242221  0.48400151  0.73494839     0.14800
C3322       C  0.69577128  0.50924856  0.79091934    -0.24200
H3323       H  0.82786105  0.50049342  0.73495133     0.05000
H3324       H  0.80735109  0.49741835  0.69994970     0.08200
H3325       H  0.81296528  0.46440550  0.72370921     0.08200
H3326       H  0.69297674  0.53380882  0.79613089     0.08200
H3327       H  0.69594227  0.49606445  0.81236262     0.08200
H3328       H  0.67574182  0.50185189  0.77753856     0.05000
C3329       C  0.71425406  0.59384952  0.93753027    -0.20800
C3330       C  0.70514466  0.58577078  0.90800520    -0.07400
C3331       C  0.67986790  0.60030607  0.89472631     0.13500
C3332       C  0.66482962  0.62333817  0.91091840    -0.20900
C3333       C  0.67528498  0.63290038  0.93944823    -0.07400
C3334       C  0.69990578  0.61777895  0.95324015     0.13500
C3335       C  0.71102200  0.62702265  0.98422599    -0.24200
H3336       H  0.73372102  0.58252140  0.94761143     0.14700
H3337       H  0.64566062  0.63498041  0.90062315     0.14800
C3338       C  0.66882664  0.59165183  0.86354848    -0.24200
H3339       H  0.73029029  0.61252591  0.99185932     0.05000
H3340       H  0.69227975  0.62490185  0.00102837     0.08200
H3341       H  0.71887869  0.65095407  0.98374563     0.08200
H3342       H  0.66327321  0.56707105  0.86303102     0.08200
H3343       H  0.68665071  0.59644159  0.84636344     0.08200
H3344       H  0.64807921  0.60462618  0.85712476     0.05000
C3345       C  0.83502791  0.45213613  0.82406727    -0.20800
C3346       C  0.83212918  0.45128427  0.85592699    -0.07400
C3347       C  0.85208782  0.43260784  0.87279816     0.13500
C3348       C  0.87555596  0.41716904  0.85775926    -0.20900
C3349       C  0.87948758  0.41901653  0.82615184    -0.07400
C3350       C  0.85857150  0.43622669  0.80897389     0.13500
C3351       C  0.86209763  0.43934480  0.77519043    -0.24200
H3352       H  0.81992542  0.46667530  0.81110158     0.14700
H3353       H  0.89167232  0.40423859  0.87111921     0.14800
C3354       C  0.84894164  0.42867911  0.90670262    -0.24200
H3355       H  0.84477930  0.45495421  0.76566891     0.05000
H3356       H  0.85925840  0.41681950  0.76433056     0.08200
H3357       H  0.88491766  0.44854146  0.76962860     0.08200
H3358       H  0.82535607  0.42174315  0.91236213     0.08200
H3359       H  0.85455032  0.45008756  0.91869476     0.08200
H3360       H  0.86459051  0.41084561  0.91546023     0.05000
loop_ 
_geom_bond_atom_site_label_1 
_geom_bond_atom_site_label_2 
_geom_bond_distance 
_geom_bond_site_symmetry_2 
_ccdc_geom_bond_type 
O1          Cr19   2.019       .  S
O1            C9   1.264       .  A
O2          Cr19   1.992       .  S
O2            C3   1.262       .  A
C3            O4   1.263       .  A
C3         C3346   1.482       .  S
O4          Cr20   1.995       .  S
O5          Cr20   1.984       .  S
O5            C6   1.262       .  A
C6            O7   1.262       .  A
C6         C3266   1.467       .  S
O7          Cr21   1.976       .  S
O8          Cr21   1.987       .  S
O8            C9   1.261       .  A
C9         C3314   1.497       .  S
O10         Cr19   1.972       .  S
O10          C18   1.258       .  A
O11         Cr19   2.023       .  S
O11          C12   1.268       .  A
C12          O13   1.261       .  A
C12        C3298   1.495       .  S
O13         Cr20   1.981       .  S
O14         Cr20   1.988       .  S
O14          C15   1.264       .  A
C15          O16   1.266       .  A
C15        C3282   1.487       .  S
O16         Cr21   2.001       .  S
O17         Cr21   2.001       .  S
O17          C18   1.265       .  A
C18        C3330   1.470       .  S
Cr19         O22   1.776       .  S
Cr20         O22   1.765       .  S
Cr21         O22   1.768       .  S
O23         Cr41   1.969       .  S
O23          C31   1.255       .  A
O24         Cr41   2.037       .  S
O24          C25   1.275       .  A
C25          O26   1.254       .  A
C25        C3234   1.479       .  S
O26         Cr42   1.946       .  S
O27         Cr42   2.011       .  S
O27          C28   1.266       .  A
C28          O29   1.259       .  A
C28        C3189   1.465       .  S
O29         Cr43   1.964       .  S
O30         Cr43   2.019       .  S
O30          C31   1.264       .  A
C31        C3218   1.501       .  S
O32         Cr41   2.030       .  S
O32          C40   1.272       .  A
O33         Cr41   1.974       .  S
O33          C34   1.252       .  A
C34          O35   1.265       .  A
C34        C3317   1.491       .  S
O35         Cr42   2.025       .  S
O36         Cr42   1.954       .  S
O36          C37   1.255       .  A
C37          O38   1.266       .  A
C37        C3205   1.480       .  S
O38         Cr43   2.023       .  S
O39         Cr43   1.938       .  S
O39          C40   1.255       .  A
C40        C3250   1.470       .  S
Cr41         O44   1.781       .  S
Cr42         O44   1.776       .  S
Cr43         O44   1.777       .  S
O45         Cr63   2.033       .  S
O45          C53   1.271       .  A
O46         Cr63   1.969       .  S
O46          C47   1.259       .  A
C47          O48   1.268       .  A
C47        C3157   1.470       .  S
O48         Cr64   2.007       .  S
O49         Cr64   1.999       .  S
O49          C50   1.267       .  A
C50          O51   1.255       .  A
C50        C3125   1.489       .  S
O51         Cr65   1.962       .  S
O52         Cr65   1.973       .  S
O52          C53   1.260       .  A
C53        C3301   1.486       .  S
O54         Cr63   1.995       .  S
O54          C62   1.260       .  A
O55         Cr63   2.018       .  S
O55          C56   1.265       .  A
C56          O57   1.258       .  A
C56        C3138   1.502       .  S
O57         Cr64   1.987       .  S
O58         Cr64   1.983       .  S
O58          C59   1.264       .  A
C59          O60   1.267       .  A
C59        C3106   1.482       .  S
O60         Cr65   2.002       .  S
O61         Cr65   1.976       .  S
O61          C62   1.254       .  A
C62        C3170   1.483       .  S
Cr63         O66   1.787       .  S
Cr64         O66   1.773       .  S
Cr65         O66   1.767       .  S
O67         Cr85   2.016       .  S
O67          C75   1.265       .  A
O68         Cr85   1.981       .  S
O68          C69   1.258       .  A
C69          O70   1.265       .  A
C69        C3090   1.483       .  S
O70         Cr86   1.995       .  S
O71         Cr86   1.986       .  S
O71          C72   1.263       .  A
C72          O73   1.264       .  A
C72        C3058   1.477       .  S
O73         Cr87   2.003       .  S
O74         Cr87   1.995       .  S
O74          C75   1.261       .  A
C75        C3141   1.493       .  S
O76         Cr85   1.969       .  S
O76          C84   1.256       .  A
O77         Cr85   2.016       .  S
O77          C78   1.267       .  A
C78          O79   1.258       .  A
C78        C3221   1.482       .  S
O79         Cr86   1.975       .  S
O80         Cr86   1.979       .  S
O80          C81   1.262       .  A
C81          O82   1.264       .  A
C81        C3045   1.471       .  S
O82         Cr87   1.985       .  S
O83         Cr87   2.018       .  S
O83          C84   1.271       .  A
C84        C3077   1.474       .  S
Cr85         O88   1.786       .  S
Cr86         O88   1.764       .  S
Cr87         O88   1.769       .  S
O89        Cr107   2.015       .  S
O89          C97   1.265       .  A
O90        Cr107   1.981       .  S
O90          C91   1.258       .  A
C91          O92   1.265       .  A
C91        C3029   1.469       .  S
O92        Cr108   1.999       .  S
O93        Cr108   1.980       .  S
O93          C94   1.262       .  A
C94          O95   1.261       .  A
C94        C2965   1.477       .  S
O95        Cr109   1.987       .  S
O96        Cr109   1.998       .  S
O96          C97   1.264       .  A
C97        C2981   1.501       .  S
O98        Cr107   1.978       .  S
O98         C106   1.256       .  A
O99        Cr107   2.011       .  S
O99         C100   1.265       .  A
C100        O101   1.254       .  A
C100       C2997   1.488       .  S
O101       Cr108   1.973       .  S
O102       Cr108   1.979       .  S
O102        C103   1.263       .  A
C103        O104   1.266       .  A
C103       C2946   1.474       .  S
O104       Cr109   1.996       .  S
O105       Cr109   2.002       .  S
O105        C106   1.265       .  A
C106       C3013   1.467       .  S
Cr107       O110   1.779       .  S
Cr108       O110   1.768       .  S
Cr109       O110   1.771       .  S
O111       Cr129   2.023       .  S
O111        C119   1.266       .  A
O112       Cr129   1.974       .  S
O112        C113   1.257       .  A
C113        O114   1.264       .  A
C113       C2917   1.468       .  S
O114       Cr130   1.983       .  S
O115       Cr130   1.993       .  S
O115        C116   1.264       .  A
C116        O117   1.265       .  A
C116       C2866   1.485       .  S
O117       Cr131   1.989       .  S
O118       Cr131   1.990       .  S
O118        C119   1.264       .  A
C119       C2978   1.497       .  S
O120       Cr129   1.978       .  S
O120        C128   1.259       .  A
O121       Cr129   2.021       .  S
O121        C122   1.268       .  A
C122        O123   1.258       .  A
C122       C2898   1.502       .  S
O123       Cr130   1.982       .  S
O124       Cr130   1.974       .  S
O124        C125   1.261       .  A
C125        O126   1.267       .  A
C125       C2882   1.480       .  S
O126       Cr131   2.008       .  S
O127       Cr131   1.991       .  S
O127        C128   1.266       .  A
C128       C2930   1.485       .  S
Cr129       O132   1.783       .  S
Cr130       O132   1.764       .  S
Cr131       O132   1.763       .  S
O133       Cr151   2.017       .  S
O133        C141   1.267       .  A
O134       Cr151   1.993       .  S
O134        C135   1.259       .  A
C135        O136   1.265       .  A
C135       C2850   1.486       .  S
O136       Cr152   1.995       .  S
O137       Cr152   1.984       .  S
O137        C138   1.258       .  A
C138        O139   1.259       .  A
C138       C2802   1.462       .  S
O139       Cr153   1.988       .  S
O140       Cr153   1.982       .  S
O140        C141   1.260       .  A
C141       C2901   1.481       .  S
O142       Cr151   1.986       .  S
O142        C150   1.260       .  A
O143       Cr151   2.024       .  S
O143        C144   1.268       .  A
C144        O145   1.261       .  A
C144       C2818   1.503       .  S
O145       Cr152   1.971       .  S
O146       Cr152   1.987       .  S
O146        C147   1.266       .  A
C147        O148   1.268       .  A
C147       C2786   1.485       .  S
O148       Cr153   2.001       .  S
O149       Cr153   1.989       .  S
O149        C150   1.264       .  A
C150       C2834   1.489       .  S
Cr151       O154   1.784       .  S
Cr152       O154   1.754       .  S
Cr153       O154   1.768       .  S
O155       Cr173   1.985       .  S
O155        C163   1.256       .  A
O156       Cr173   2.017       .  S
O156        C157   1.274       .  A
C157        O158   1.258       .  A
C157       C2770   1.482       .  S
O158       Cr174   1.938       .  S
O159       Cr174   2.016       .  S
O159        C160   1.264       .  A
C160        O161   1.253       .  A
C160       C2722   1.470       .  S
O161       Cr175   1.957       .  S
O162       Cr175   1.998       .  S
O162        C163   1.258       .  A
C163       C2994   1.503       .  S
O164       Cr173   2.033       .  S
O164        C172   1.274       .  A
O165       Cr173   1.980       .  S
O165        C166   1.256       .  A
C166        O167   1.260       .  A
C166       C2821   1.493       .  S
O167       Cr174   2.012       .  S
O168       Cr174   1.982       .  S
O168        C169   1.267       .  A
C169        O170   1.267       .  A
C169       C2738   1.475       .  S
O170       Cr175   2.010       .  S
O171       Cr175   1.921       .  S
O171        C172   1.256       .  A
C172       C2757   1.473       .  S
Cr173       O176   1.776       .  S
Cr174       O176   1.789       .  S
Cr175       O176   1.757       .  S
O177       Cr195   1.996       .  S
O177        C185   1.261       .  A
O178       Cr195   2.028   1_565  S
O178        C179   1.268   1_565  A
C179        O180   1.263       .  A
C179       C2658   1.496       .  S
O180       Cr196   1.995       .  S
O181       Cr196   1.997       .  S
O181        C182   1.266       .  A
C182        O183   1.267       .  A
C182       C2645   1.480       .  S
O183       Cr197   1.998       .  S
O184       Cr197   1.992       .  S
O184        C185   1.263       .  A
C185       C2690   1.488       .  S
O186       Cr195   2.036       .  S
O186        C194   1.271       .  A
O187       Cr195   1.977   1_565  S
O187        C188   1.259       .  A
C188        O189   1.268       .  A
C188       C2706   1.479       .  S
O189       Cr196   2.001   1_565  S
O190       Cr196   1.998       .  S
O190        C191   1.263       .  A
C191        O192   1.255       .  A
C191       C2626   1.488       .  S
O192       Cr197   1.970       .  S
O193       Cr197   1.990       .  S
O193        C194   1.261       .  A
C194       C2674   1.498       .  S
Cr195       O198   1.788       .  S
Cr196       O198   1.767       .  S
Cr197       O198   1.765       .  S
O199       Cr217   1.976       .  S
O199        C207   1.258       .  A
O200       Cr217   2.034   1_545  S
O200        C201   1.273   1_545  A
C201        O202   1.263       .  A
C201       C2594   1.496       .  S
O202       Cr218   1.985       .  S
O203       Cr218   1.970       .  S
O203        C204   1.259       .  A
C204        O205   1.266       .  A
C204       C2853   1.476       .  S
O205       Cr219   2.006       .  S
O206       Cr219   2.005       .  S
O206        C207   1.268       .  A
C207       C2885   1.478       .  S
O208       Cr217   2.028       .  S
O208        C216   1.269       .  A
O209       Cr217   1.997   1_545  S
O209        C210   1.259       .  A
C210        O211   1.255       .  A
C210       C2613   1.485       .  S
O211       Cr218   1.979   1_545  S
O212       Cr218   1.999       .  S
O212        C213   1.266       .  A
C213        O214   1.265       .  A
C213       C2578   1.483       .  S
O214       Cr219   2.002       .  S
O215       Cr219   1.993       .  S
O215        C216   1.262       .  A
C216       C2677   1.505       .  S
Cr217       O220   1.780       .  S
Cr218       O220   1.759       .  S
Cr219       O220   1.767       .  S
O221       Cr239   1.971   1_545  S
O221        C229   1.257       .  A
O222       Cr239   2.025       .  S
O222        C223   1.270       .  A
C223        O224   1.260       .  A
C223       C2546   1.500       .  S
O224       Cr240   1.979       .  S
O225       Cr240   1.979       .  S
O225        C226   1.261       .  A
C226        O227   1.268       .  A
C226       C2530   1.488       .  S
O227       Cr241   2.007       .  S
O228       Cr241   1.997   1_545  S
O228        C229   1.265       .  A
C229       C2562   1.466       .  S
O230       Cr239   2.025   1_545  S
O230        C238   1.269   1_545  A
O231       Cr239   1.969       .  S
O231        C232   1.255       .  A
C232        O233   1.262       .  A
C232       C2805   1.457       .  S
O233       Cr240   1.994       .  S
O234       Cr240   1.992       .  S
O234        C235   1.266       .  A
C235        O236   1.258       .  A
C235       C2933   1.484       .  S
O236       Cr241   1.968       .  S
O237       Cr241   1.983       .  S
O237        C238   1.258       .  A
C238       C2597   1.500   1_565  S
Cr239       O242   1.781       .  S
Cr240       O242   1.769       .  S
Cr241       O242   1.769       .  S
O243       Cr261   1.976   1_565  S
O243        C251   1.256       .  A
O244       Cr261   2.019       .  S
O244        C245   1.270       .  A
C245        O246   1.264       .  A
C245       C2549   1.488       .  S
O246       Cr262   1.989       .  S
O247       Cr262   1.987       .  S
O247        C248   1.261       .  A
C248        O249   1.266       .  A
C248       C2469   1.483       .  S
O249       Cr263   1.993       .  S
O250       Cr263   1.994   1_565  S
O250        C251   1.263       .  A
C251       C2517   1.465       .  S
O252       Cr261   2.033   1_565  S
O252        C260   1.268       .  A
O253       Cr261   1.979       .  S
O253        C254   1.257       .  A
C254        O255   1.261       .  A
C254       C2498   1.464       .  S
O255       Cr262   1.991       .  S
O256       Cr262   2.003       .  S
O256        C257   1.269       .  A
C257        O258   1.261       .  A
C257       C2482   1.480       .  S
O258       Cr263   1.977       .  S
O259       Cr263   1.978       .  S
O259        C260   1.259   1_545  A
C260       C2661   1.512       .  S
Cr261       O264   1.785       .  S
Cr262       O264   1.773       .  S
Cr263       O264   1.768       .  S
O265       Cr283   2.019   1_556  S
O265        C273   1.269       .  A
O266       Cr283   1.931       .  S
O266        C267   1.247       .  A
C267        O268   1.265       .  A
C267       C2434   1.488       .  S
O268       Cr284   2.022       .  S
O269       Cr284   1.966       .  S
O269        C270   1.260       .  A
C270        O271   1.271       .  A
C270       C3154   1.477       .  S
O271       Cr285   2.028       .  S
O272       Cr285   1.945   1_556  S
O272        C273   1.255       .  A
C273       C3285   1.467       .  S
O274       Cr283   1.933       .  S
O274        C282   1.245       .  A
O275       Cr283   2.027       .  S
O275        C276   1.272       .  A
C276        O277   1.255       .  A
C276       C2450   1.473       .  S
O277       Cr284   1.940       .  S
O278       Cr284   2.015       .  S
O278        C279   1.267       .  A
C279        O280   1.257       .  A
C279       C2405   1.480       .  S
O280       Cr285   1.959       .  S
O281       Cr285   2.042       .  S
O281        C282   1.271       .  A
C282       C2421   1.499   1_554  S
Cr283       O286   1.771       .  S
Cr284       O286   1.774       .  S
Cr285       O286   1.766       .  S
O287       Cr305   2.027   1_554  S
O287        C295   1.270       .  A
O288       Cr305   1.954   1_554  S
O288        C289   1.250   1_554  A
C289        O290   1.260       .  A
C289       C2437   1.485       .  S
O290       Cr306   2.005       .  S
O291       Cr306   1.977       .  S
O291        C292   1.261       .  A
C292        O293   1.266       .  A
C292       C3333   1.467       .  S
O293       Cr307   2.014       .  S
O294       Cr307   1.931   1_554  S
O294        C295   1.256       .  A
C295       C3122   1.473       .  S
O296       Cr305   1.961       .  S
O296        C304   1.251   1_556  A
O297       Cr305   2.020       .  S
O297        C298   1.271       .  A
C298        O299   1.254       .  A
C298       C2386   1.456       .  S
O299       Cr306   1.933       .  S
O300       Cr306   2.007       .  S
O300        C301   1.265       .  A
C301        O302   1.260       .  A
C301       C2354   1.469       .  S
O302       Cr307   1.969       .  S
O303       Cr307   2.020   1_554  S
O303        C304   1.267       .  A
C304       C2370   1.497       .  S
Cr305       O308   1.775       .  S
Cr306       O308   1.771       .  S
Cr307       O308   1.762       .  S
O309       Cr327   1.975       .  S
O309        C317   1.259       .  A
O310       Cr327   2.019   1_554  S
O310        C311   1.268   1_554  A
C311        O312   1.263       .  A
C311       C2373   1.487   1_556  S
O312       Cr328   1.976       .  S
O313       Cr328   1.974       .  S
O313        C314   1.257       .  A
C314        O315   1.268       .  A
C314       C2274   1.492       .  S
O315       Cr329   2.016       .  S
O316       Cr329   1.998       .  S
O316        C317   1.266       .  A
C317       C2322   1.470       .  S
O318       Cr327   1.998       .  S
O318        C326   1.262       .  A
O319       Cr327   2.007   1_554  S
O319        C320   1.261       .  A
C320        O321   1.259       .  A
C320       C2341   1.484       .  S
O321       Cr328   1.975   1_554  S
O322       Cr328   1.982       .  S
O322        C323   1.263       .  A
C323        O324   1.267       .  A
C323       C2290   1.473       .  S
O324       Cr329   1.999       .  S
O325       Cr329   1.996       .  S
O325        C326   1.264       .  A
C326       C2309   1.487       .  S
Cr327       O330   1.774       .  S
Cr328       O330   1.756       .  S
Cr329       O330   1.766       .  S
O331       Cr349   2.009       .  S
O331        C339   1.264       .  A
O332       Cr349   2.014   1_556  S
O332        C333   1.263       .  A
C333        O334   1.259   1_556  A
C333       C2418   1.488       .  S
O334       Cr350   1.965       .  S
O335       Cr350   1.984       .  S
O335        C336   1.260       .  A
C336        O337   1.270       .  A
C336       C2210   1.495       .  S
O337       Cr351   2.010       .  S
O338       Cr351   1.987       .  S
O338        C339   1.264       .  A
C339       C2242   1.487       .  S
O340       Cr349   2.005       .  S
O340        C348   1.263       .  A
O341       Cr349   2.008   1_556  S
O341        C342   1.265       .  A
C342        O343   1.263       .  A
C342       C2258   1.480       .  S
O343       Cr350   1.988   1_556  S
O344       Cr350   1.985       .  S
O344        C345   1.262       .  A
C345        O346   1.263       .  A
C345       C2226   1.475       .  S
O346       Cr351   1.976       .  S
O347       Cr351   1.994       .  S
O347        C348   1.264       .  A
C348       C2306   1.485       .  S
Cr349       O352   1.782       .  S
Cr350       O352   1.764       .  S
Cr351       O352   1.763       .  S
O353       Cr371   2.008       .  S
O353        C361   1.266       .  A
O354       Cr371   1.980   1_545  S
O354        C355   1.258       .  A
C355        O356   1.265       .  A
C355       C2197   1.472       .  S
O356       Cr372   2.001   1_545  S
O357       Cr372   2.016       .  S
O357        C358   1.268       .  A
C358        O359   1.259       .  A
C358       C2146   1.488       .  S
O359       Cr373   1.970       .  S
O360       Cr373   1.968       .  S
O360        C361   1.258       .  A
C361       C2181   1.478       .  S
O362       Cr371   1.972       .  S
O362        C370   1.255       .  A
O363       Cr371   2.019   1_545  S
O363        C364   1.266       .  A
C364        O365   1.262   1_545  A
C364       C2165   1.500       .  S
O365       Cr372   1.986       .  S
O366       Cr372   1.980       .  S
O366        C367   1.262       .  A
C367        O368   1.266       .  A
C367       C2338   1.484       .  S
O368       Cr373   1.989       .  S
O369       Cr373   1.988       .  S
O369        C370   1.259       .  A
C370       C2229   1.468       .  S
Cr371       O374   1.779       .  S
Cr372       O374   1.767       .  S
Cr373       O374   1.769       .  S
O375       Cr393   2.011   1_545  S
O375        C383   1.264   1_545  A
O376       Cr393   1.983       .  S
O376        C377   1.259       .  A
C377        O378   1.259       .  A
C377       C2293   1.471       .  S
O378       Cr394   1.985       .  S
O379       Cr394   1.989       .  S
O379        C380   1.264       .  A
C380        O381   1.266       .  A
C380       C2261   1.479       .  S
O381       Cr395   2.002       .  S
O382       Cr395   2.003       .  S
O382        C383   1.266       .  A
C383       C2162   1.498       .  S
O384       Cr393   1.984   1_545  S
O384        C392   1.261       .  A
O385       Cr393   2.010       .  S
O385        C386   1.265       .  A
C386        O387   1.259       .  A
C386       C2114   1.480       .  S
O387       Cr394   1.978       .  S
O388       Cr394   1.967       .  S
O388        C389   1.256       .  A
C389        O390   1.266       .  A
C389       C2098   1.485       .  S
O390       Cr395   2.005       .  S
O391       Cr395   2.000   1_545  S
O391        C392   1.267       .  A
C392       C2130   1.479       .  S
Cr393       O396   1.776       .  S
Cr394       O396   1.769       .  S
Cr395       O396   1.766       .  S
O397       Cr415   2.017   1_545  S
O397        C405   1.268       .  A
O398       Cr415   1.990       .  S
O398        C399   1.259       .  A
C399        O400   1.261       .  A
C399       C2069   1.474       .  S
O400       Cr416   1.995   1_565  S
O401       Cr416   1.992       .  S
O401        C402   1.265       .  A
C402        O403   1.264       .  A
C402       C2034   1.476       .  S
O403       Cr417   1.982       .  S
O404       Cr417   1.968       .  S
O404        C405   1.257       .  A
C405       C2117   1.485       .  S
O406       Cr415   1.981   1_545  S
O406        C414   1.258       .  A
O407       Cr415   2.023       .  S
O407        C408   1.270   1_565  A
C408        O409   1.256       .  A
C408       C2053   1.489       .  S
O409       Cr416   1.963       .  S
O410       Cr416   1.972       .  S
O410        C411   1.261       .  A
C411        O412   1.264       .  A
C411       C2018   1.476       .  S
O412       Cr417   1.994       .  S
O413       Cr417   1.997       .  S
O413        C414   1.264       .  A
C414       C2085   1.474       .  S
Cr415       O418   1.775   1_565  S
Cr416       O418   1.768       .  S
Cr417       O418   1.765       .  S
O419       Cr437   1.957       .  S
O419        C427   1.253       .  A
O420       Cr437   2.004       .  S
O420        C421   1.265       .  A
C421        O422   1.254       .  A
C421       C2005   1.455       .  S
O422       Cr438   1.939       .  S
O423       Cr438   2.006       .  S
O423        C424   1.266       .  A
C424        O425   1.263       .  A
C424       C1954   1.462       .  S
O425       Cr439   1.975       .  S
O426       Cr439   2.033       .  S
O426        C427   1.267       .  A
C427       C2050   1.503       .  S
O428       Cr437   2.009   1_565  S
O428        C436   1.267       .  A
O429       Cr437   1.954       .  S
O429        C430   1.254       .  A
C430        O431   1.264       .  A
C430       C2178   1.494       .  S
O431       Cr438   2.015       .  S
O432       Cr438   1.968       .  S
O432        C433   1.260       .  A
C433        O434   1.267       .  A
C433       C1970   1.477       .  S
O434       Cr439   2.014       .  S
O435       Cr439   1.953       .  S
O435        C436   1.256   1_545  A
C436       C1986   1.465       .  S
Cr437       O440   1.773       .  S
Cr438       O440   1.769       .  S
Cr439       O440   1.769       .  S
O441       Cr459   1.987       .  S
O441        C449   1.260       .  A
O442       Cr459   2.027   1_655  S
O442        C443   1.270   1_655  A
C443        O444   1.260       .  A
C443       C1922   1.494       .  S
O444       Cr460   1.979       .  S
O445       Cr460   1.999       .  S
O445        C446   1.264       .  A
C446        O447   1.262       .  A
C446       C2066   1.476       .  S
O447       Cr461   1.992       .  S
O448       Cr461   1.997       .  S
O448        C449   1.267       .  A
C449       C2101   1.489       .  S
O450       Cr459   2.024       .  S
O450        C458   1.269       .  A
O451       Cr459   1.986   1_655  S
O451        C452   1.260       .  A
C452        O453   1.263       .  A
C452       C2869   1.483       .  S
O453       Cr460   1.992   1_655  S
O454       Cr460   1.982       .  S
O454        C455   1.261       .  A
C455        O456   1.265       .  A
C455       C3026   1.466       .  S
O456       Cr461   1.999       .  S
O457       Cr461   1.984       .  S
O457        C458   1.260       .  A
C458       C1938   1.490       .  S
Cr459       O462   1.783       .  S
Cr460       O462   1.766       .  S
Cr461       O462   1.763       .  S
O463       Cr481   1.964       .  S
O463        C471   1.255       .  A
O464       Cr481   2.031   1_455  S
O464        C465   1.272   1_455  A
C465        O466   1.258       .  A
C465       C1906   1.497       .  S
O466       Cr482   1.968       .  S
O467       Cr482   1.975       .  S
O467        C468   1.261       .  A
C468        O469   1.267       .  A
C468       C3253   1.497       .  S
O469       Cr483   2.009       .  S
O470       Cr483   1.993       .  S
O470        C471   1.264       .  A
C471       C3269   1.463       .  S
O472       Cr481   2.026       .  S
O472        C480   1.270       .  A
O473       Cr481   1.975   1_455  S
O473        C474   1.256       .  A
C474        O475   1.260       .  A
C474       C2962   1.472       .  S
O475       Cr482   1.992   1_455  S
O476       Cr482   1.987       .  S
O476        C477   1.266       .  A
C477        O478   1.261       .  A
C477       C2914   1.474       .  S
O478       Cr483   1.979       .  S
O479       Cr483   1.983       .  S
O479        C480   1.259       .  A
C480       C1941   1.501       .  S
Cr481       O484   1.780       .  S
Cr482       O484   1.768       .  S
Cr483       O484   1.768       .  S
O485       Cr503   1.996       .  S
O485        C493   1.261       .  A
O486       Cr503   2.024   1_455  S
O486        C487   1.266   1_455  A
C487        O488   1.257       .  A
C487       C1909   1.487       .  S
O488       Cr504   1.979       .  S
O489       Cr504   1.991       .  S
O489        C490   1.265       .  A
C490        O491   1.268       .  A
C490       C3349   1.484       .  S
O491       Cr505   2.002       .  S
O492       Cr505   1.989       .  S
O492        C493   1.262       .  A
C493       C3202   1.489       .  S
O494       Cr503   2.021       .  S
O494        C502   1.270       .  A
O495       Cr503   1.974   1_455  S
O495        C496   1.257       .  A
C496        O497   1.267       .  A
C496       C1890   1.470       .  S
O497       Cr504   2.007   1_455  S
O498       Cr504   1.995       .  S
O498        C499   1.264       .  A
C499        O500   1.261       .  A
C499       C1858   1.477       .  S
O500       Cr505   1.976       .  S
O501       Cr505   1.985       .  S
O501        C502   1.262       .  A
C502       C1877   1.491       .  S
Cr503       O506   1.781       .  S
Cr504       O506   1.767       .  S
Cr505       O506   1.764       .  S
O507       Cr525   1.981       .  S
O507        C515   1.257       .  A
O508       Cr525   2.014   1_655  S
O508        C509   1.267   1_655  A
C509        O510   1.259       .  A
C509       C1925   1.487       .  S
O510       Cr526   1.983       .  S
O511       Cr526   1.988       .  S
O511        C512   1.266       .  A
C512        O513   1.267       .  A
C512       C2133   1.486       .  S
O513       Cr527   2.000       .  S
O514       Cr527   1.987       .  S
O514        C515   1.260       .  A
C515       C2037   1.471       .  S
O516       Cr525   2.017       .  S
O516        C524   1.269       .  A
O517       Cr525   1.972   1_655  S
O517        C518   1.256       .  A
C518        O519   1.266       .  A
C518       C1842   1.470       .  S
O519       Cr526   2.005   1_655  S
O520       Cr526   1.993       .  S
O520        C521   1.266       .  A
C521        O522   1.257       .  A
C521       C1826   1.483       .  S
O522       Cr527   1.971       .  S
O523       Cr527   1.982       .  S
O523        C524   1.259       .  A
C524       C1874   1.491       .  S
Cr525       O528   1.777       .  S
Cr526       O528   1.765       .  S
Cr527       O528   1.769       .  S
O529       Cr547   1.984       .  S
O529        C537   1.259       .  A
O530       Cr547   2.009       .  S
O530        C531   1.265       .  A
C531        O532   1.257       .  A
C531       C1794   1.494       .  S
O532       Cr548   1.975       .  S
O533       Cr548   1.995       .  S
O533        C534   1.263       .  A
C534        O535   1.263       .  A
C534       C1989   1.468       .  S
O535       Cr549   1.986       .  S
O536       Cr549   2.000       .  S
O536        C537   1.265       .  A
C537       C2149   1.482       .  S
O538       Cr547   2.013       .  S
O538        C546   1.266       .  A
O539       Cr547   1.975       .  S
O539        C540   1.258       .  A
C540        O541   1.268       .  A
C540       C2789   1.475       .  S
O541       Cr548   2.007       .  S
O542       Cr548   1.983       .  S
O542        C543   1.262       .  A
C543        O544   1.264       .  A
C543       C2754   1.489       .  S
O544       Cr549   1.985       .  S
O545       Cr549   1.977       .  S
O545        C546   1.260       .  A
C546       C1813   1.485       .  S
Cr547       O550   1.777       .  S
Cr548       O550   1.768       .  S
Cr549       O550   1.761       .  S
O551       Cr569   2.035       .  S
O551        C559   1.275       .  A
O552       Cr569   1.943       .  S
O552        C553   1.251       .  A
C553        O554   1.268       .  A
C553       C1810   1.500       .  S
O554       Cr570   2.036       .  S
O555       Cr570   1.963       .  S
O555        C556   1.258       .  A
C556        O557   1.269       .  A
C556       C2837   1.472       .  S
O557       Cr571   2.023       .  S
O558       Cr571   1.922       .  S
O558        C559   1.253       .  A
C559       C2741   1.467       .  S
O560       Cr569   1.949       .  S
O560        C568   1.246       .  A
O561       Cr569   2.027       .  S
O561        C562   1.272       .  A
C562        O563   1.254       .  A
C562       C3109   1.464       .  S
O563       Cr570   1.931       .  S
O564       Cr570   2.039       .  S
O564        C565   1.271       .  A
C565        O566   1.253       .  A
C565       C3093   1.482       .  S
O566       Cr571   1.955       .  S
O567       Cr571   2.015       .  S
O567        C568   1.263       .  A
C568       C1778   1.491       .  S
Cr569       O572   1.768       .  S
Cr570       O572   1.773       .  S
Cr571       O572   1.764       .  S
O573       Cr591   2.033       .  S
O573        C581   1.274       .  A
O574       Cr591   1.963       .  S
O574        C575   1.248       .  A
C575        O576   1.261       .  A
C575       C1746   1.487       .  S
O576       Cr592   2.022       .  S
O577       Cr592   1.970       .  S
O577        C578   1.262       .  A
C578        O579   1.266       .  A
C578       C1730   1.467       .  S
O579       Cr593   2.016       .  S
O580       Cr593   1.925       .  S
O580        C581   1.256       .  A
C581       C1765   1.489       .  S
O582       Cr591   1.960       .  S
O582        C590   1.249       .  A
O583       Cr591   2.040       .  S
O583        C584   1.278       .  A
C584        O585   1.255       .  A
C584       C3061   1.478       .  S
O585       Cr592   1.938       .  S
O586       Cr592   2.007       .  S
O586        C587   1.264       .  A
C587        O588   1.257       .  A
C587       C3173   1.459       .  S
O588       Cr593   1.959       .  S
O589       Cr593   2.000       .  S
O589        C590   1.261       .  A
C590       C1781   1.490       .  S
Cr591       O594   1.780       .  S
Cr592       O594   1.783       .  S
Cr593       O594   1.775       .  S
O595       Cr613   1.978       .  S
O595        C603   1.261       .  A
O596       Cr613   2.015       .  S
O596        C597   1.263       .  A
C597        O598   1.256       .  A
C597       C1797   1.478       .  S
O598       Cr614   1.977       .  S
O599       Cr614   2.001       .  S
O599        C600   1.266       .  A
C600        O601   1.259       .  A
C600       C2194   1.470       .  S
O601       Cr615   1.982       .  S
O602       Cr615   2.000       .  S
O602        C603   1.268       .  A
C603       C1973   1.484       .  S
O604       Cr613   2.021       .  S
O604        C612   1.266       .  A
O605       Cr613   1.962       .  S
O605        C606   1.259       .  A
C606        O607   1.273       .  A
C606       C1717   1.488       .  S
O607       Cr614   2.012       .  S
O608       Cr614   1.963       .  S
O608        C609   1.253       .  A
C609        O610   1.265       .  A
C609       C1698   1.459       .  S
O610       Cr615   2.000       .  S
O611       Cr615   1.981       .  S
O611        C612   1.261       .  A
C612       C1749   1.500       .  S
Cr613       O616   1.785       .  S
Cr614       O616   1.766       .  S
Cr615       O616   1.762       .  S
O617       Cr635   2.015       .  S
O617        C625   1.265       .  A
O618       Cr635   1.973   1_554  S
O618        C619   1.260       .  A
C619        O620   1.272       .  A
C619       C1682   1.482       .  S
O620       Cr636   2.010   1_554  S
O621       Cr636   1.962       .  S
O621        C622   1.253       .  A
C622        O623   1.265       .  A
C622       C1634   1.461       .  S
O623       Cr637   2.007       .  S
O624       Cr637   1.976       .  S
O624        C625   1.259       .  A
C625       C1666   1.481       .  S
O626       Cr635   1.979       .  S
O626        C634   1.261       .  A
O627       Cr635   2.010   1_554  S
O627        C628   1.264   1_554  A
C628        O629   1.257       .  A
C628       C1650   1.482       .  S
O629       Cr636   1.972       .  S
O630       Cr636   2.009       .  S
O630        C631   1.267       .  A
C631        O632   1.257       .  A
C631       C1893   1.470       .  S
O632       Cr637   1.975       .  S
O633       Cr637   1.996       .  S
O633        C634   1.268       .  A
C634       C1829   1.482       .  S
Cr635       O638   1.782       .  S
Cr636       O638   1.762       .  S
Cr637       O638   1.763       .  S
O639       Cr657   2.006   1_554  S
O639        C647   1.265   1_554  A
O640       Cr657   1.979       .  S
O640        C641   1.259       .  A
C641        O642   1.264       .  A
C641       C1861   1.471       .  S
O642       Cr658   1.994       .  S
O643       Cr658   1.992       .  S
O643        C644   1.265       .  A
C644        O645   1.266       .  A
C644       C1845   1.473       .  S
O645       Cr659   1.992       .  S
O646       Cr659   1.976       .  S
O646        C647   1.260       .  A
C647       C1653   1.473   1_556  S
O648       Cr657   1.986   1_554  S
O648        C656   1.258       .  A
O649       Cr657   2.007       .  S
O649        C650   1.263       .  A
C650        O651   1.259       .  A
C650       C1618   1.474       .  S
O651       Cr658   1.980       .  S
O652       Cr658   1.980       .  S
O652        C653   1.259       .  A
C653        O654   1.265       .  A
C653       C2693   1.483       .  S
O654       Cr659   2.000       .  S
O655       Cr659   1.993   1_554  S
O655        C656   1.266       .  A
C656       C2485   1.483       .  S
Cr657       O660   1.781       .  S
Cr658       O660   1.759       .  S
Cr659       O660   1.762       .  S
O661       Cr679   1.965       .  S
O661        C669   1.251   1_554  A
O662       Cr679   2.016       .  S
O662        C663   1.267       .  A
C663        O664   1.253       .  A
C663       C1733   1.465       .  S
O664       Cr680   1.939       .  S
O665       Cr680   2.003       .  S
O665        C666   1.268       .  A
C666        O667   1.264       .  A
C666       C1714   1.489       .  S
O667       Cr681   1.981       .  S
O668       Cr681   2.014   1_556  S
O668        C669   1.267       .  A
C669       C1602   1.496       .  S
O670       Cr679   2.023   1_556  S
O670        C678   1.270       .  A
O671       Cr679   1.959       .  S
O671        C672   1.253       .  A
C672        O673   1.265       .  A
C672       C1621   1.473       .  S
O673       Cr680   2.019       .  S
O674       Cr680   1.963       .  S
O674        C675   1.258       .  A
C675        O676   1.261       .  A
C675       C2501   1.459       .  S
O676       Cr681   2.006       .  S
O677       Cr681   1.958   1_556  S
O677        C678   1.258       .  A
C678       C2642   1.474       .  S
Cr679       O682   1.782       .  S
Cr680       O682   1.769       .  S
Cr681       O682   1.775       .  S
O683       Cr701   1.950   1_556  S
O683        C691   1.253   1_556  A
O684       Cr701   2.023   1_556  S
O684        C685   1.270       .  A
C685        O686   1.254       .  A
C685       C1586   1.461       .  S
O686       Cr702   1.937   1_556  S
O687       Cr702   2.013       .  S
O687        C688   1.267       .  A
C688        O689   1.255       .  A
C688       C1570   1.483       .  S
O689       Cr703   1.959       .  S
O690       Cr703   2.027       .  S
O690        C691   1.268       .  A
C691       C1669   1.500       .  S
O692       Cr701   2.018       .  S
O692        C700   1.268       .  A
O693       Cr701   1.953       .  S
O693        C694   1.251   1_554  A
C694        O695   1.268       .  A
C694       C1605   1.490       .  S
O695       Cr702   2.023   1_556  S
O696       Cr702   1.950       .  S
O696        C697   1.256       .  A
C697        O698   1.271       .  A
C697       C1762   1.490       .  S
O698       Cr703   2.035       .  S
O699       Cr703   1.944       .  S
O699        C700   1.256       .  A
C700       C1701   1.472       .  S
Cr701       O704   1.774       .  S
Cr702       O704   1.763       .  S
Cr703       O704   1.768       .  S
O705       Cr723   2.022       .  S
O705        C713   1.268       .  A
O706       Cr723   2.007       .  S
O706        C707   1.262       .  A
C707        O708   1.259       .  A
C707       C2629   1.489       .  S
O708       Cr724   1.979       .  S
O709       Cr724   2.009       .  S
O709        C710   1.269       .  A
C710        O711   1.263       .  A
C710       C2610   1.493       .  S
O711       Cr725   1.962       .  S
O712       Cr725   1.975       .  S
O712        C713   1.257       .  A
C713       C1525   1.492       .  S
O714       Cr723   1.990       .  S
O714        C722   1.261       .  A
O715       Cr723   2.026       .  S
O715        C716   1.271       .  A
C716        O717   1.264       .  A
C716       C1541   1.495       .  S
O717       Cr724   1.989       .  S
O718       Cr724   1.985       .  S
O718        C719   1.258       .  A
C719        O720   1.261       .  A
C719       C1509   1.471       .  S
O720       Cr725   1.992       .  S
O721       Cr725   1.985       .  S
O721        C722   1.262       .  A
C722       C1557   1.480       .  S
Cr723       O726   1.783       .  S
Cr724       O726   1.768       .  S
Cr725       O726   1.756       .  S
O727       Cr745   2.031       .  S
O727        C735   1.270       .  A
O728       Cr745   2.007       .  S
O728        C729   1.263       .  A
C729        O730   1.263       .  A
C729       C2277   1.495       .  S
O730       Cr746   1.989       .  S
O731       Cr746   1.987       .  S
O731        C732   1.264       .  A
C732        O733   1.263       .  A
C732       C2389   1.477       .  S
O733       Cr747   1.984       .  S
O734       Cr747   1.977       .  S
O734        C735   1.258       .  A
C735       C1490   1.495       .  S
O736       Cr745   1.998       .  S
O736        C744   1.263       .  A
O737       Cr745   2.030       .  S
O737        C738   1.271       .  A
C738        O739   1.259       .  A
C738       C1522   1.489       .  S
O739       Cr746   1.974       .  S
O740       Cr746   1.979       .  S
O740        C741   1.262       .  A
C741        O742   1.264       .  A
C741       C2709   1.468       .  S
O742       Cr747   1.987       .  S
O743       Cr747   2.001       .  S
O743        C744   1.265       .  A
C744       C2581   1.484       .  S
Cr745       O748   1.779       .  S
Cr746       O748   1.763       .  S
Cr747       O748   1.773       .  S
O749       Cr767   2.027       .  S
O749        C757   1.270       .  A
O750       Cr767   1.979       .  S
O750        C751   1.259       .  A
C751        O752   1.264       .  A
C751       C1477   1.469       .  S
O752       Cr768   1.994       .  S
O753       Cr768   1.995       .  S
O753        C754   1.266       .  A
C754        O755   1.264       .  A
C754       C1442   1.482       .  S
O755       Cr769   1.978       .  S
O756       Cr769   1.982       .  S
O756        C757   1.260       .  A
C757       C1458   1.499       .  S
O758       Cr767   1.981       .  S
O758        C766   1.258       .  A
O759       Cr767   2.030       .  S
O759        C760   1.269       .  A
C760        O761   1.261       .  A
C760       C1493   1.498       .  S
O761       Cr768   1.981       .  S
O762       Cr768   1.984       .  S
O762        C763   1.262       .  A
C763        O764   1.265       .  A
C763       C2325   1.475       .  S
O764       Cr769   2.002       .  S
O765       Cr769   1.987       .  S
O765        C766   1.263       .  A
C766       C2357   1.485       .  S
Cr767       O770   1.781       .  S
Cr768       O770   1.764       .  S
Cr769       O770   1.765       .  S
O771       Cr789   2.025       .  S
O771        C779   1.269       .  A
O772       Cr789   1.982       .  S
O772        C773   1.258       .  A
C773        O774   1.263       .  A
C773       C1426   1.474       .  S
O774       Cr790   1.990       .  S
O775       Cr790   1.991       .  S
O775        C776   1.262       .  A
C776        O777   1.260       .  A
C776       C1378   1.474       .  S
O777       Cr791   1.992       .  S
O778       Cr791   1.985       .  S
O778        C779   1.262       .  A
C779       C1538   1.491       .  S
O780       Cr789   1.977       .  S
O780        C788   1.257       .  A
O781       Cr789   2.022       .  S
O781        C782   1.269       .  A
C782        O783   1.260       .  A
C782       C1461   1.490       .  S
O783       Cr790   1.984       .  S
O784       Cr790   1.975       .  S
O784        C785   1.261       .  A
C785        O786   1.267       .  A
C785       C1394   1.471       .  S
O786       Cr791   1.997       .  S
O787       Cr791   1.992       .  S
O787        C788   1.263       .  A
C788       C1410   1.473       .  S
Cr789       O792   1.783       .  S
Cr790       O792   1.758       .  S
Cr791       O792   1.770       .  S
O793       Cr811   1.978       .  S
O793        C801   1.258       .  A
O794       Cr811   2.022       .  S
O794        C795   1.264       .  A
C795        O796   1.254       .  A
C795       C1362   1.489       .  S
O796       Cr812   1.966       .  S
O797       Cr812   1.980       .  S
O797        C798   1.264       .  A
C798        O799   1.265       .  A
C798       C1413   1.476       .  S
O799       Cr813   1.991       .  S
O800       Cr813   1.991       .  S
O800        C801   1.263       .  A
C801       C1445   1.473       .  S
O802       Cr811   2.019       .  S
O802        C810   1.268       .  A
O803       Cr811   1.961       .  S
O803        C804   1.255       .  A
C804        O805   1.270       .  A
C804       C1637   1.463       .  S
O805       Cr812   2.011       .  S
O806       Cr812   1.989       .  S
O806        C807   1.264       .  A
C807        O808   1.263       .  A
C807       C1589   1.487       .  S
O808       Cr813   1.982       .  S
O809       Cr813   1.984       .  S
O809        C810   1.262       .  A
C810       C1346   1.490       .  S
Cr811       O814   1.786       .  S
Cr812       O814   1.772       .  S
Cr813       O814   1.764       .  S
O815       Cr833   1.979       .  S
O815        C823   1.259       .  A
O816       Cr833   2.029       .  S
O816        C817   1.269       .  A
C817        O818   1.258       .  A
C817       C1365   1.487       .  S
O818       Cr834   1.971       .  S
O819       Cr834   2.002       .  S
O819        C820   1.264       .  A
C820        O821   1.258       .  A
C820       C1474   1.477       .  S
O821       Cr835   1.978       .  S
O822       Cr835   2.003       .  S
O822        C823   1.268       .  A
C823       C1397   1.480       .  S
O824       Cr833   2.031       .  S
O824        C832   1.269       .  A
O825       Cr833   1.975       .  S
O825        C826   1.257       .  A
C826        O827   1.267       .  A
C826       C2949   1.484       .  S
O827       Cr834   1.999       .  S
O828       Cr834   1.977       .  S
O828        C829   1.257       .  A
C829        O830   1.267       .  A
C829       C2773   1.470       .  S
O830       Cr835   2.006       .  S
O831       Cr835   1.970       .  S
O831        C832   1.260       .  A
C832       C1330   1.507       .  S
Cr833       O836   1.790       .  S
Cr834       O836   1.773       .  S
Cr835       O836   1.760       .  S
O837       Cr855   1.979       .  S
O837        C845   1.261       .  A
O838       Cr855   2.032       .  S
O838        C839   1.269       .  A
C839        O840   1.260       .  A
C839       C1333   1.493       .  S
O840       Cr856   1.990       .  S
O841       Cr856   1.998       .  S
O841        C842   1.265       .  A
C842        O843   1.262       .  A
C842       C3010   1.469       .  S
O843       Cr857   1.987       .  S
O844       Cr857   1.995       .  S
O844        C845   1.262       .  A
C845       C2725   1.472       .  S
O846       Cr855   2.016       .  S
O846        C854   1.265       .  A
O847       Cr855   1.985       .  S
O847        C848   1.262       .  A
C848        O849   1.264       .  A
C848       C1317   1.495       .  S
O849       Cr856   1.999       .  S
O850       Cr856   2.002       .  S
O850        C851   1.263       .  A
C851        O852   1.263       .  A
C851       C1285   1.488       .  S
O852       Cr857   1.992       .  S
O853       Cr857   1.979       .  S
O853        C854   1.262       .  A
C854       C1301   1.477       .  S
Cr855       O858   1.784       .  S
Cr856       O858   1.769       .  S
Cr857       O858   1.769       .  S
O859       Cr877   1.995       .  S
O859        C867   1.262       .  A
O860       Cr877   2.028       .  S
O860        C861   1.270       .  A
C861        O862   1.260       .  A
C861       C1298   1.495       .  S
O862       Cr878   1.971       .  S
O863       Cr878   1.963       .  S
O863        C864   1.254       .  A
C864        O865   1.266       .  A
C864       C1250   1.471       .  S
O865       Cr879   2.005       .  S
O866       Cr879   1.995       .  S
O866        C867   1.261       .  A
C867       C1269   1.480       .  S
O868       Cr877   2.021       .  S
O868        C876   1.271       .  A
O869       Cr877   1.994       .  S
O869        C870   1.259       .  A
C870        O871   1.257       .  A
C870       C1573   1.476       .  S
O871       Cr878   1.978       .  S
O872       Cr878   1.992       .  S
O872        C873   1.266       .  A
C873        O874   1.264       .  A
C873       C1685   1.476       .  S
O874       Cr879   1.990       .  S
O875       Cr879   1.979       .  S
O875        C876   1.262       .  A
C876       C1349   1.490       .  S
Cr877       O880   1.773       .  S
Cr878       O880   1.765       .  S
Cr879       O880   1.765       .  S
O881       Cr899   2.017       .  S
O881        C889   1.267       .  A
O882       Cr899   1.983   1_455  S
O882        C883   1.259       .  A
C883        O884   1.264       .  A
C883       C1234   1.470       .  S
O884       Cr900   1.992   1_455  S
O885       Cr900   2.003       .  S
O885        C886   1.267       .  A
C886        O887   1.260       .  A
C886       C1189   1.481       .  S
O887       Cr901   1.976       .  S
O888       Cr901   1.974       .  S
O888        C889   1.257       .  A
C889       C1218   1.484       .  S
O890       Cr899   1.989       .  S
O890        C898   1.261       .  A
O891       Cr899   2.017   1_455  S
O891        C892   1.267   1_455  A
C892        O893   1.264       .  A
C892       C1205   1.501   1_655  S
O893       Cr900   1.995       .  S
O894       Cr900   1.986       .  S
O894        C895   1.262       .  A
C895        O896   1.263       .  A
C895       C2565   1.468       .  S
O896       Cr901   1.984       .  S
O897       Cr901   1.995       .  S
O897        C898   1.264       .  A
C898       C2466   1.484       .  S
Cr899       O902   1.776       .  S
Cr900       O902   1.766       .  S
Cr901       O902   1.769       .  S
O903       Cr921   2.026       .  S
O903        C911   1.268       .  A
O904       Cr921   1.979   1_655  S
O904        C905   1.260       .  A
C905        O906   1.268       .  A
C905       C2533   1.483       .  S
O906       Cr922   2.007       .  S
O907       Cr922   1.971       .  S
O907        C908   1.257       .  A
C908        O909   1.267       .  A
C908       C2514   1.465       .  S
O909       Cr923   2.006       .  S
O910       Cr923   1.977       .  S
O910        C911   1.257   1_655  A
C911       C1202   1.487       .  S
O912       Cr921   1.985       .  S
O912        C920   1.261       .  A
O913       Cr921   2.034   1_655  S
O913        C914   1.269       .  A
C914        O915   1.261       .  A
C914       C1173   1.503       .  S
O915       Cr922   1.980       .  S
O916       Cr922   2.011       .  S
O916        C917   1.266       .  A
C917        O918   1.256       .  A
C917       C2453   1.465       .  S
O918       Cr923   1.970       .  S
O919       Cr923   2.010   1_455  S
O919        C920   1.272       .  A
C920       C2213   1.498       .  S
Cr921       O924   1.782   1_455  S
Cr922       O924   1.765       .  S
Cr923       O924   1.768       .  S
O925       Cr943   2.039       .  S
O925        C933   1.272       .  A
O926       Cr943   1.983   1_655  S
O926        C927   1.259       .  A
C927        O928   1.260       .  A
C927       C2402   1.478       .  S
O928       Cr944   1.989   1_655  S
O929       Cr944   1.998       .  S
O929        C930   1.266       .  A
C930        O931   1.261       .  A
C930       C2245   1.478       .  S
O931       Cr945   1.980       .  S
O932       Cr945   1.971       .  S
O932        C933   1.256       .  A
C933       C1170   1.493       .  S
O934       Cr943   1.992       .  S
O934        C942   1.261       .  A
O935       Cr943   2.022   1_655  S
O935        C936   1.269   1_655  A
C936        O937   1.265       .  A
C936       C1157   1.483       .  S
O937       Cr944   1.982       .  S
O938       Cr944   1.993       .  S
O938        C939   1.262       .  A
C939        O940   1.264       .  A
C939       C1266   1.474       .  S
O940       Cr945   1.989       .  S
O941       Cr945   1.996       .  S
O941        C942   1.264       .  A
C942       C1282   1.488       .  S
Cr943       O946   1.780       .  S
Cr944       O946   1.766       .  S
Cr945       O946   1.762       .  S
O947       Cr965   2.012   1_655  S
O947        C955   1.264   1_655  A
O948       Cr965   1.980       .  S
O948        C949   1.255       .  A
C949        O950   1.261       .  A
C949       C1253   1.475       .  S
O950       Cr966   1.981       .  S
O951       Cr966   2.006       .  S
O951        C952   1.269       .  A
C952        O953   1.265       .  A
C952       C1314   1.497       .  S
O953       Cr967   1.982       .  S
O954       Cr967   1.969       .  S
O954        C955   1.254       .  A
C955       C1154   1.487       .  S
O956       Cr965   1.964   1_655  S
O956        C964   1.256       .  A
O957       Cr965   2.018       .  S
O957        C958   1.270       .  A
C958        O959   1.263       .  A
C958       C1221   1.490       .  S
O959       Cr966   1.981       .  S
O960       Cr966   1.978       .  S
O960        C961   1.260       .  A
C961        O962   1.265       .  A
C961       C1122   1.476       .  S
O962       Cr967   1.989       .  S
O963       Cr967   2.003   1_655  S
O963        C964   1.267       .  A
C964       C1138   1.462       .  S
Cr965       O968   1.787       .  S
Cr966       O968   1.763       .  S
Cr967       O968   1.769       .  S
O969       Cr987   1.979       .  S
O969        C977   1.265       .  A
O970       Cr987   2.007       .  S
O970        C971   1.262       .  A
C971        O972   1.257       .  A
C971       C1106   1.479       .  S
O972       Cr988   1.982       .  S
O973       Cr988   2.004       .  S
O973        C974   1.267       .  A
C974        O975   1.260       .  A
C974       C3074   1.470       .  S
O975       Cr989   1.980       .  S
O976       Cr989   2.001       .  S
O976        C977   1.267       .  A
C977       C3186   1.488       .  S
O978       Cr987   2.015       .  S
O978        C986   1.262       .  A
O979       Cr987   1.978       .  S
O979        C980   1.262       .  A
C980        O981   1.273       .  A
C980       C1186   1.488       .  S
O981       Cr988   2.011       .  S
O982       Cr988   1.960       .  S
O982        C983   1.251       .  A
C983        O984   1.263       .  A
C983       C1141   1.457       .  S
O984       Cr989   1.995       .  S
O985       Cr989   1.984       .  S
O985        C986   1.258       .  A
C986       C1090   1.476       .  S
Cr987       O990   1.784       .  S
Cr988       O990   1.767       .  S
Cr989       O990   1.767       .  S
O991      Cr1009   1.988       .  S
O991        C999   1.260       .  A
O992      Cr1009   2.012       .  S
O992        C993   1.267       .  A
C993        O994   1.259       .  A
C993       C1109   1.487       .  S
O994      Cr1010   1.977       .  S
O995      Cr1010   2.002       .  S
O995        C996   1.264       .  A
C996        O997   1.264       .  A
C996       C3237   1.488       .  S
O997      Cr1011   1.994       .  S
O998      Cr1011   1.992       .  S
O998        C999   1.264       .  A
C999       C3042   1.478       .  S
O1000     Cr1009   2.021       .  S
O1000      C1008   1.266       .  A
O1001     Cr1009   1.977       .  S
O1001      C1002   1.257       .  A
C1002      O1003   1.266       .  A
C1002      C1506   1.473       .  S
O1003     Cr1010   2.005       .  S
O1004     Cr1010   1.984       .  S
O1004      C1005   1.262       .  A
C1005      O1006   1.261       .  A
C1005      C1429   1.466       .  S
O1006     Cr1011   1.972       .  S
O1007     Cr1011   1.983       .  S
O1007      C1008   1.262       .  A
C1008      C1074   1.497       .  S
Cr1009     O1012   1.783       .  S
Cr1010     O1012   1.775       .  S
Cr1011     O1012   1.760       .  S
O1013     Cr1031   1.973       .  S
O1013      C1021   1.257       .  A
O1014     Cr1031   2.024       .  S
O1014      C1015   1.268       .  A
C1015      O1016   1.261       .  A
C1015      C1077   1.496       .  S
O1016     Cr1032   1.989       .  S
O1017     Cr1032   1.982       .  S
O1017      C1018   1.263       .  A
C1018      O1019   1.262       .  A
C1018      C1554   1.472       .  S
O1019     Cr1033   1.982       .  S
O1020     Cr1033   2.001       .  S
O1020      C1021   1.264       .  A
C1021      C1381   1.474       .  S
O1022     Cr1031   2.017       .  S
O1022      C1030   1.268       .  A
O1023     Cr1031   1.976       .  S
O1023      C1024   1.259       .  A
C1024      O1025   1.264       .  A
C1024      C1957   1.467       .  S
O1025     Cr1032   1.997       .  S
O1026     Cr1032   1.996       .  S
O1026      C1027   1.263       .  A
C1027      O1028   1.263       .  A
C1027      C2082   1.479       .  S
O1028     Cr1033   1.987       .  S
O1029     Cr1033   1.988       .  S
O1029      C1030   1.261       .  A
C1030      C1061   1.494       .  S
Cr1031     O1034   1.775       .  S
Cr1032     O1034   1.770       .  S
Cr1033     O1034   1.774       .  S
O1035     Cr1053   1.969       .  S
O1035      C1043   1.254       .  A
O1036     Cr1053   2.031       .  S
O1036      C1037   1.272       .  A
C1037      O1038   1.253       .  A
C1037      C1093   1.502       .  S
O1038     Cr1054   1.956       .  S
O1039     Cr1054   1.989       .  S
O1039      C1040   1.265       .  A
C1040      O1041   1.265       .  A
C1040      C1237   1.480       .  S
O1041     Cr1055   1.995       .  S
O1042     Cr1055   1.991       .  S
O1042      C1043   1.264       .  A
C1043      C1125   1.469       .  S
O1044     Cr1053   2.030       .  S
O1044      C1052   1.272       .  A
O1045     Cr1053   1.963       .  S
O1045      C1046   1.254       .  A
C1046      O1047   1.264       .  A
C1046      C2021   1.466       .  S
O1047     Cr1054   1.995       .  S
O1048     Cr1054   1.983       .  S
O1048      C1049   1.262       .  A
C1049      O1050   1.263       .  A
C1049      C2002   1.475       .  S
O1050     Cr1055   1.983       .  S
O1051     Cr1055   1.973       .  S
O1051      C1052   1.259       .  A
C1052      C1058   1.491       .  S
Cr1053     O1056   1.778       .  S
Cr1054     O1056   1.764       .  S
Cr1055     O1056   1.764       .  S
C1057      C1058   1.405       .  A
C1057      C1062   1.411       .  A
C1057      H1064   1.084       .  S
C1058      C1059   1.416       .  A
C1059      C1060   1.408       .  A
C1059      C1066   1.507       .  S
C1060      C1061   1.406       .  A
C1060      H1065   1.084       .  S
C1061      C1062   1.418       .  A
C1062      C1063   1.506       .  S
C1063      H1067   1.111       .  S
C1063      H1068   1.110       .  S
C1063      H1069   1.109       .  S
C1066      H1070   1.110       .  S
C1066      H1071   1.109       .  S
C1066      H1072   1.111       .  S
C1073      C1074   1.402       .  A
C1073      C1078   1.405       .  A
C1073      H1080   1.084       .  S
C1074      C1075   1.420       .  A
C1075      C1076   1.414       .  A
C1075      C1082   1.506       .  S
C1076      C1077   1.407       .  A
C1076      H1081   1.084       .  S
C1077      C1078   1.418       .  A
C1078      C1079   1.503       .  S
C1079      H1083   1.111       .  S
C1079      H1084   1.102       .  S
C1079      H1085   1.109       .  S
C1082      H1086   1.104       .  S
C1082      H1087   1.110       .  S
C1082      H1088   1.111       .  S
C1089      C1090   1.394       .  A
C1089      C1094   1.402       .  A
C1089      H1096   1.084       .  S
C1090      C1091   1.409       .  A
C1091      C1092   1.411   1_655  A
C1091      C1098   1.505       .  S
C1092      C1093   1.411       .  A
C1092      H1097   1.083       .  S
C1093      C1094   1.431   1_455  A
C1094      C1095   1.512   1_655  S
C1095      H1099   1.111   1_455  S
C1095      H1100   1.110       .  S
C1095      H1101   1.110       .  S
C1098      H1102   1.110       .  S
C1098      H1103   1.111       .  S
C1098      H1104   1.111       .  S
C1105      C1106   1.402       .  A
C1105      C1110   1.405       .  A
C1105      H1112   1.084       .  S
C1106      C1107   1.412       .  A
C1107      C1108   1.407       .  A
C1107      C1114   1.507       .  S
C1108      C1109   1.407       .  A
C1108      H1113   1.083       .  S
C1109      C1110   1.416       .  A
C1110      C1111   1.507       .  S
C1111      H1115   1.111       .  S
C1111      H1116   1.110       .  S
C1111      H1117   1.109       .  S
C1114      H1118   1.110       .  S
C1114      H1119   1.110       .  S
C1114      H1120   1.111       .  S
C1121      C1122   1.400       .  A
C1121      C1126   1.404       .  A
C1121      H1128   1.081       .  S
C1122      C1123   1.422       .  A
C1123      C1124   1.391       .  A
C1123      C1130   1.508       .  S
C1124      C1125   1.393       .  A
C1124      H1129   1.085       .  S
C1125      C1126   1.418       .  A
C1126      C1127   1.504       .  S
C1127      H1131   1.111       .  S
C1127      H1132   1.110       .  S
C1127      H1133   1.109       .  S
C1130      H1134   1.105       .  S
C1130      H1135   1.108       .  S
C1130      H1136   1.111       .  S
C1137      C1138   1.399       .  A
C1137      C1142   1.401       .  A
C1137      H1144   1.084       .  S
C1138      C1139   1.419       .  A
C1139      C1140   1.396       .  A
C1139      C1146   1.505       .  S
C1140      C1141   1.393       .  A
C1140      H1145   1.085       .  S
C1141      C1142   1.409       .  A
C1142      C1143   1.505       .  S
C1143      H1147   1.111       .  S
C1143      H1148   1.103       .  S
C1143      H1149   1.110       .  S
C1146      H1150   1.105   1_655  S
C1146      H1151   1.100       .  S
C1146      H1152   1.111       .  S
C1153      C1154   1.405   1_655  A
C1153      C1158   1.412       .  A
C1153      H1160   1.084       .  S
C1154      C1155   1.421       .  A
C1155      C1156   1.401       .  A
C1155      C1162   1.510       .  S
C1156      C1157   1.399       .  A
C1156      H1161   1.085       .  S
C1157      C1158   1.416   1_455  A
C1158      C1159   1.506       .  S
C1159      H1163   1.111       .  S
C1159      H1164   1.111       .  S
C1159      H1165   1.109       .  S
C1162      H1166   1.107       .  S
C1162      H1167   1.108       .  S
C1162      H1168   1.111       .  S
C1169      C1170   1.405       .  A
C1169      C1174   1.419       .  A
C1169      H1176   1.084       .  S
C1170      C1171   1.417       .  A
C1171      C1172   1.403   1_455  A
C1171      C1178   1.507       .  S
C1172      C1173   1.405       .  A
C1172      H1177   1.084       .  S
C1173      C1174   1.423   1_655  A
C1174      C1175   1.505       .  S
C1175      H1179   1.110   1_455  S
C1175      H1180   1.110       .  S
C1175      H1181   1.111       .  S
C1178      H1182   1.100   1_455  S
C1178      H1183   1.105       .  S
C1178      H1184   1.111   1_455  S
C1185      C1186   1.403       .  A
C1185      C1190   1.396       .  A
C1185      H1192   1.080       .  S
C1186      C1187   1.418       .  A
C1187      C1188   1.411       .  A
C1187      C1194   1.507       .  S
C1188      C1189   1.405       .  A
C1188      H1193   1.084       .  S
C1189      C1190   1.416       .  A
C1190      C1191   1.513       .  S
C1191      H1195   1.111       .  S
C1191      H1196   1.108       .  S
C1191      H1197   1.111       .  S
C1194      H1198   1.110       .  S
C1194      H1199   1.108       .  S
C1194      H1200   1.111       .  S
C1201      C1202   1.403   1_655  A
C1201      C1206   1.411   1_565  A
C1201      H1208   1.083       .  S
C1202      C1203   1.412   1_565  A
C1203      C1204   1.409       .  A
C1203      C1210   1.506   1_545  S
C1204      C1205   1.410       .  A
C1204      H1209   1.084       .  S
C1205      C1206   1.419   1_455  A
C1206      C1207   1.506       .  S
C1207      H1211   1.111   1_545  S
C1207      H1212   1.109       .  S
C1207      H1213   1.110   1_655  S
C1210      H1214   1.110       .  S
C1210      H1215   1.110       .  S
C1210      H1216   1.111   1_565  S
C1217      C1218   1.404   1_455  A
C1217      C1222   1.408       .  A
C1217      H1224   1.083       .  S
C1218      C1219   1.413       .  A
C1219      C1220   1.407       .  A
C1219      C1226   1.507       .  S
C1220      C1221   1.407   1_655  A
C1220      H1225   1.084       .  S
C1221      C1222   1.417       .  A
C1222      C1223   1.507       .  S
C1223      H1227   1.111       .  S
C1223      H1228   1.110       .  S
C1223      H1229   1.110       .  S
C1226      H1230   1.109       .  S
C1226      H1231   1.110       .  S
C1226      H1232   1.111       .  S
C1233      C1234   1.408       .  A
C1233      C1238   1.410       .  A
C1233      H1240   1.084       .  S
C1234      C1235   1.407       .  A
C1235      C1236   1.393       .  A
C1235      C1242   1.510       .  S
C1236      C1237   1.406       .  A
C1236      H1241   1.082       .  S
C1237      C1238   1.413       .  A
C1238      C1239   1.506       .  S
C1239      H1243   1.111       .  S
C1239      H1244   1.110       .  S
C1239      H1245   1.110       .  S
C1242      H1246   1.110       .  S
C1242      H1247   1.108       .  S
C1242      H1248   1.111       .  S
C1249      C1250   1.405       .  A
C1249      C1254   1.409       .  A
C1249      H1256   1.084       .  S
C1250      C1251   1.420       .  A
C1251      C1252   1.383       .  A
C1251      C1258   1.515       .  S
C1252      C1253   1.398       .  A
C1252      H1257   1.084       .  S
C1253      C1254   1.417       .  A
C1254      C1255   1.506       .  S
C1255      H1259   1.111       .  S
C1255      H1260   1.109       .  S
C1255      H1261   1.110       .  S
C1258      H1262   1.101       .  S
C1258      H1263   1.108       .  S
C1258      H1264   1.111       .  S
C1265      C1266   1.394       .  A
C1265      C1270   1.403       .  A
C1265      H1272   1.085       .  S
C1266      C1267   1.419       .  A
C1267      C1268   1.404       .  A
C1267      C1274   1.509       .  S
C1268      C1269   1.400       .  A
C1268      H1273   1.084       .  S
C1269      C1270   1.414       .  A
C1270      C1271   1.492       .  S
C1271      H1275   1.108       .  S
C1271      H1276   1.109       .  S
C1271      H1277   1.109       .  S
C1274      H1278   1.110       .  S
C1274      H1279   1.108       .  S
C1274      H1280   1.111       .  S
C1281      C1282   1.411       .  A
C1281      C1286   1.413       .  A
C1281      H1288   1.084       .  S
C1282      C1283   1.414       .  A
C1283      C1284   1.400       .  A
C1283      C1290   1.509       .  S
C1284      C1285   1.404       .  A
C1284      H1289   1.081       .  S
C1285      C1286   1.412       .  A
C1286      C1287   1.503       .  S
C1287      H1291   1.107       .  S
C1287      H1292   1.109       .  S
C1287      H1293   1.110       .  S
C1290      H1294   1.110       .  S
C1290      H1295   1.108       .  S
C1290      H1296   1.107       .  S
C1297      C1298   1.407       .  A
C1297      C1302   1.399       .  A
C1297      H1304   1.080       .  S
C1298      C1299   1.418       .  A
C1299      C1300   1.412       .  A
C1299      C1306   1.506       .  S
C1300      C1301   1.405       .  A
C1300      H1305   1.084       .  S
C1301      C1302   1.407       .  A
C1302      C1303   1.508       .  S
C1303      H1307   1.111       .  S
C1303      H1308   1.110       .  S
C1303      H1309   1.103       .  S
C1306      H1310   1.109       .  S
C1306      H1311   1.111       .  S
C1306      H1312   1.111       .  S
C1313      C1314   1.409       .  A
C1313      C1318   1.398       .  A
C1313      H1320   1.083       .  S
C1314      C1315   1.416       .  A
C1315      C1316   1.410       .  A
C1315      C1322   1.504       .  S
C1316      C1317   1.411       .  A
C1316      H1321   1.084       .  S
C1317      C1318   1.418       .  A
C1318      C1319   1.512       .  S
C1319      H1323   1.111       .  S
C1319      H1324   1.108       .  S
C1319      H1325   1.110       .  S
C1322      H1326   1.109       .  S
C1322      H1327   1.110       .  S
C1322      H1328   1.111       .  S
C1329      C1330   1.406       .  A
C1329      C1334   1.399       .  A
C1329      H1336   1.082       .  S
C1330      C1331   1.424       .  A
C1331      C1332   1.421       .  A
C1331      C1338   1.506       .  S
C1332      C1333   1.407       .  A
C1332      H1337   1.084       .  S
C1333      C1334   1.408       .  A
C1334      C1335   1.498       .  S
C1335      H1339   1.111       .  S
C1335      H1340   1.110       .  S
C1335      H1341   1.103       .  S
C1338      H1342   1.108       .  S
C1338      H1343   1.110       .  S
C1338      H1344   1.111       .  S
C1345      C1346   1.406       .  A
C1345      C1350   1.408   1_556  A
C1345      H1352   1.084       .  S
C1346      C1347   1.416   1_556  A
C1347      C1348   1.409       .  A
C1347      C1354   1.507       .  S
C1348      C1349   1.405       .  A
C1348      H1353   1.081       .  S
C1349      C1350   1.415       .  A
C1350      C1351   1.507       .  S
C1351      H1355   1.111   1_554  S
C1351      H1356   1.110       .  S
C1351      H1357   1.109       .  S
C1354      H1358   1.111   1_554  S
C1354      H1359   1.109   1_554  S
C1354      H1360   1.111       .  S
C1361      C1362   1.404       .  A
C1361      C1366   1.400       .  A
C1361      H1368   1.085       .  S
C1362      C1363   1.415       .  A
C1363      C1364   1.415       .  A
C1363      C1370   1.504       .  S
C1364      C1365   1.408       .  A
C1364      H1369   1.084       .  S
C1365      C1366   1.416       .  A
C1366      C1367   1.510       .  S
C1367      H1371   1.111       .  S
C1367      H1372   1.108       .  S
C1367      H1373   1.105       .  S
C1370      H1374   1.110       .  S
C1370      H1375   1.110       .  S
C1370      H1376   1.111       .  S
C1377      C1378   1.399       .  A
C1377      C1382   1.404       .  A
C1377      H1384   1.085       .  S
C1378      C1379   1.417       .  A
C1379      C1380   1.403       .  A
C1379      C1386   1.509       .  S
C1380      C1381   1.399       .  A
C1380      H1385   1.084       .  S
C1381      C1382   1.422       .  A
C1382      C1383   1.509       .  S
C1383      H1387   1.110       .  S
C1383      H1388   1.105       .  S
C1383      H1389   1.111       .  S
C1386      H1390   1.111       .  S
C1386      H1391   1.109       .  S
C1386      H1392   1.111       .  S
C1393      C1394   1.405       .  A
C1393      C1398   1.411       .  A
C1393      H1400   1.084       .  S
C1394      C1395   1.412       .  A
C1395      C1396   1.393       .  A
C1395      C1402   1.512       .  S
C1396      C1397   1.401       .  A
C1396      H1401   1.080       .  S
C1397      C1398   1.416       .  A
C1398      C1399   1.505       .  S
C1399      H1403   1.111       .  S
C1399      H1404   1.110       .  S
C1399      H1405   1.110       .  S
C1402      H1406   1.107       .  S
C1402      H1407   1.110       .  S
C1402      H1408   1.110       .  S
C1409      C1410   1.411       .  A
C1409      C1414   1.408       .  A
C1409      H1416   1.083       .  S
C1410      C1411   1.408       .  A
C1411      C1412   1.393       .  A
C1411      C1418   1.510       .  S
C1412      C1413   1.406       .  A
C1412      H1417   1.083       .  S
C1413      C1414   1.410       .  A
C1414      C1415   1.507       .  S
C1415      H1419   1.111       .  S
C1415      H1420   1.110       .  S
C1415      H1421   1.111       .  S
C1418      H1422   1.110       .  S
C1418      H1423   1.108       .  S
C1418      H1424   1.111       .  S
C1425      C1426   1.401       .  A
C1425      C1430   1.389       .  A
C1425      H1432   1.078       .  S
C1426      C1427   1.413       .  A
C1427      C1428   1.409       .  A
C1427      C1434   1.505       .  S
C1428      C1429   1.406       .  A
C1428      H1433   1.084       .  S
C1429      C1430   1.410       .  A
C1430      C1431   1.513       .  S
C1431      H1435   1.111       .  S
C1431      H1436   1.110       .  S
C1431      H1437   1.108       .  S
C1434      H1438   1.110       .  S
C1434      H1439   1.111       .  S
C1434      H1440   1.111       .  S
C1441      C1442   1.407       .  A
C1441      C1446   1.391       .  A
C1441      H1448   1.082       .  S
C1442      C1443   1.413       .  A
C1443      C1444   1.409       .  A
C1443      C1450   1.503       .  S
C1444      C1445   1.408       .  A
C1444      H1449   1.084       .  S
C1445      C1446   1.410       .  A
C1446      C1447   1.512       .  S
C1447      H1451   1.111       .  S
C1447      H1452   1.108       .  S
C1447      H1453   1.111       .  S
C1450      H1454   1.108       .  S
C1450      H1455   1.110       .  S
C1450      H1456   1.108       .  S
C1457      C1458   1.408       .  A
C1457      C1462   1.410       .  A
C1457      H1464   1.084       .  S
C1458      C1459   1.421       .  A
C1459      C1460   1.411       .  A
C1459      C1466   1.508       .  S
C1460      C1461   1.404       .  A
C1460      H1465   1.084       .  S
C1461      C1462   1.413       .  A
C1462      C1463   1.506       .  S
C1463      H1467   1.111       .  S
C1463      H1468   1.109       .  S
C1463      H1469   1.110       .  S
C1466      H1470   1.109       .  S
C1466      H1471   1.110       .  S
C1466      H1472   1.111       .  S
C1473      C1474   1.402       .  A
C1473      C1478   1.405       .  A
C1473      H1480   1.084       .  S
C1474      C1475   1.415       .  A
C1475      C1476   1.396       .  A
C1475      C1482   1.500       .  S
C1476      C1477   1.396       .  A
C1476      H1481   1.085       .  S
C1477      C1478   1.416       .  A
C1478      C1479   1.505       .  S
C1479      H1483   1.109       .  S
C1479      H1484   1.110       .  S
C1479      H1485   1.107       .  S
C1482      H1486   1.108       .  S
C1482      H1487   1.110       .  S
C1482      H1488   1.111       .  S
C1489      C1490   1.407       .  A
C1489      C1494   1.418       .  A
C1489      H1496   1.084       .  S
C1490      C1491   1.418       .  A
C1491      C1492   1.403       .  A
C1491      C1498   1.507       .  S
C1492      C1493   1.403       .  A
C1492      H1497   1.084       .  S
C1493      C1494   1.419       .  A
C1494      C1495   1.505       .  S
C1495      H1499   1.111       .  S
C1495      H1500   1.110       .  S
C1495      H1501   1.110       .  S
C1498      H1502   1.108       .  S
C1498      H1503   1.110       .  S
C1498      H1504   1.111       .  S
C1505      C1506   1.397       .  A
C1505      C1510   1.400       .  A
C1505      H1512   1.084       .  S
C1506      C1507   1.419       .  A
C1507      C1508   1.404       .  A
C1507      C1514   1.506       .  S
C1508      C1509   1.397       .  A
C1508      H1513   1.084       .  S
C1509      C1510   1.417       .  A
C1510      C1511   1.507       .  S
C1511      H1515   1.111       .  S
C1511      H1516   1.110       .  S
C1511      H1517   1.108       .  S
C1514      H1518   1.105       .  S
C1514      H1519   1.106       .  S
C1514      H1520   1.111       .  S
C1521      C1522   1.403       .  A
C1521      C1526   1.408       .  A
C1521      H1528   1.084       .  S
C1522      C1523   1.416       .  A
C1523      C1524   1.409   1_565  A
C1523      C1530   1.507       .  S
C1524      C1525   1.405       .  A
C1524      H1529   1.084       .  S
C1525      C1526   1.419   1_545  A
C1526      C1527   1.508       .  S
C1527      H1531   1.111       .  S
C1527      H1532   1.109   1_565  S
C1527      H1533   1.110   1_565  S
C1530      H1534   1.108       .  S
C1530      H1535   1.110       .  S
C1530      H1536   1.111   1_565  S
C1537      C1538   1.405       .  A
C1537      C1542   1.407       .  A
C1537      H1544   1.085       .  S
C1538      C1539   1.414       .  A
C1539      C1540   1.412       .  A
C1539      C1546   1.506       .  S
C1540      C1541   1.408       .  A
C1540      H1545   1.084       .  S
C1541      C1542   1.420       .  A
C1542      C1543   1.510       .  S
C1543      H1547   1.111       .  S
C1543      H1548   1.110       .  S
C1543      H1549   1.109       .  S
C1546      H1550   1.111       .  S
C1546      H1551   1.109       .  S
C1546      H1552   1.111       .  S
C1553      C1554   1.407       .  A
C1553      C1558   1.409       .  A
C1553      H1560   1.084       .  S
C1554      C1555   1.411       .  A
C1555      C1556   1.391       .  A
C1555      C1562   1.513       .  S
C1556      C1557   1.403       .  A
C1556      H1561   1.078       .  S
C1557      C1558   1.414       .  A
C1558      C1559   1.505       .  S
C1559      H1563   1.110       .  S
C1559      H1564   1.110       .  S
C1559      H1565   1.111       .  S
C1562      H1566   1.111       .  S
C1562      H1567   1.108       .  S
C1562      H1568   1.111       .  S
C1569      C1570   1.410       .  A
C1569      C1574   1.404       .  A
C1569      H1576   1.084       .  S
C1570      C1571   1.419       .  A
C1571      C1572   1.394       .  A
C1571      C1578   1.512       .  S
C1572      C1573   1.403       .  A
C1572      H1577   1.082       .  S
C1573      C1574   1.409       .  A
C1574      C1575   1.505       .  S
C1575      H1579   1.111       .  S
C1575      H1580   1.110       .  S
C1575      H1581   1.105       .  S
C1578      H1582   1.110       .  S
C1578      H1583   1.111       .  S
C1578      H1584   1.111       .  S
C1585      C1586   1.406       .  A
C1585      C1590   1.411       .  A
C1585      H1592   1.084       .  S
C1586      C1587   1.404       .  A
C1587      C1588   1.392       .  A
C1587      C1594   1.508       .  S
C1588      C1589   1.409       .  A
C1588      H1593   1.084       .  S
C1589      C1590   1.414       .  A
C1590      C1591   1.504       .  S
C1591      H1595   1.110       .  S
C1591      H1596   1.110       .  S
C1591      H1597   1.107       .  S
C1594      H1598   1.110       .  S
C1594      H1599   1.111       .  S
C1594      H1600   1.110       .  S
C1601      C1602   1.404       .  A
C1601      C1606   1.402       .  A
C1601      H1608   1.084       .  S
C1602      C1603   1.425       .  A
C1603      C1604   1.407       .  A
C1603      C1610   1.509   1_556  S
C1604      C1605   1.403       .  A
C1604      H1609   1.084   1_556  S
C1605      C1606   1.420       .  A
C1606      C1607   1.510       .  S
C1607      H1611   1.111       .  S
C1607      H1612   1.110       .  S
C1607      H1613   1.109       .  S
C1610      H1614   1.110   1_554  S
C1610      H1615   1.106       .  S
C1610      H1616   1.111       .  S
C1617      C1618   1.403       .  A
C1617      C1622   1.402   1_556  A
C1617      H1624   1.085       .  S
C1618      C1619   1.411       .  A
C1619      C1620   1.407   1_556  A
C1619      C1626   1.506       .  S
C1620      C1621   1.404       .  A
C1620      H1625   1.084       .  S
C1621      C1622   1.412       .  A
C1622      C1623   1.507       .  S
C1623      H1627   1.111       .  S
C1623      H1628   1.105       .  S
C1623      H1629   1.110       .  S
C1626      H1630   1.110       .  S
C1626      H1631   1.110       .  S
C1626      H1632   1.111       .  S
C1633      C1634   1.396       .  A
C1633      C1638   1.399       .  A
C1633      H1640   1.085       .  S
C1634      C1635   1.415       .  A
C1635      C1636   1.399       .  A
C1635      C1642   1.503       .  S
C1636      C1637   1.395       .  A
C1636      H1641   1.084       .  S
C1637      C1638   1.414       .  A
C1638      C1639   1.504       .  S
C1639      H1643   1.106       .  S
C1639      H1644   1.101       .  S
C1639      H1645   1.111       .  S
C1642      H1646   1.110       .  S
C1642      H1647   1.106       .  S
C1642      H1648   1.105       .  S
C1649      C1650   1.406   1_554  A
C1649      C1654   1.404   1_455  A
C1649      H1656   1.084       .  S
C1650      C1651   1.416       .  A
C1651      C1652   1.403   1_455  A
C1651      C1658   1.508       .  S
C1652      C1653   1.402   1_556  A
C1652      H1657   1.083       .  S
C1653      C1654   1.409       .  A
C1654      C1655   1.506       .  S
C1655      H1659   1.111   1_655  S
C1655      H1660   1.110   1_554  S
C1655      H1661   1.110       .  S
C1658      H1662   1.109       .  S
C1658      H1663   1.110   1_556  S
C1658      H1664   1.111   1_455  S
C1665      C1666   1.406   1_554  A
C1665      C1670   1.412       .  A
C1665      H1672   1.083       .  S
C1666      C1667   1.409       .  A
C1667      C1668   1.399       .  A
C1667      C1674   1.510       .  S
C1668      C1669   1.412   1_556  A
C1668      H1673   1.083       .  S
C1669      C1670   1.420       .  A
C1670      C1671   1.506       .  S
C1671      H1675   1.111       .  S
C1671      H1676   1.108       .  S
C1671      H1677   1.110       .  S
C1674      H1678   1.108       .  S
C1674      H1679   1.110       .  S
C1674      H1680   1.111       .  S
C1681      C1682   1.401       .  A
C1681      C1686   1.393       .  A
C1681      H1688   1.080       .  S
C1682      C1683   1.418       .  A
C1683      C1684   1.411       .  A
C1683      C1690   1.507       .  S
C1684      C1685   1.406       .  A
C1684      H1689   1.084       .  S
C1685      C1686   1.412       .  A
C1686      C1687   1.512       .  S
C1687      H1691   1.111       .  S
C1687      H1692   1.111       .  S
C1687      H1693   1.108       .  S
C1690      H1694   1.108       .  S
C1690      H1695   1.110       .  S
C1690      H1696   1.111       .  S
C1697      C1698   1.390       .  A
C1697      C1702   1.391       .  A
C1697      H1704   1.086       .  S
C1698      C1699   1.413       .  A
C1699      C1700   1.408       .  A
C1699      C1706   1.505       .  S
C1700      C1701   1.401       .  A
C1700      H1705   1.084       .  S
C1701      C1702   1.419       .  A
C1702      C1703   1.503       .  S
C1703      H1707   1.110       .  S
C1703      H1708   1.106       .  S
C1703      H1709   1.111       .  S
C1706      H1710   1.104       .  S
C1706      H1711   1.110       .  S
C1706      H1712   1.111       .  S
C1713      C1714   1.407       .  A
C1713      C1718   1.403       .  A
C1713      H1720   1.084       .  S
C1714      C1715   1.417       .  A
C1715      C1716   1.405       .  A
C1715      C1722   1.508       .  S
C1716      C1717   1.406       .  A
C1716      H1721   1.082       .  S
C1717      C1718   1.417       .  A
C1718      C1719   1.509       .  S
C1719      H1723   1.111       .  S
C1719      H1724   1.110       .  S
C1719      H1725   1.109       .  S
C1722      H1726   1.110       .  S
C1722      H1727   1.111       .  S
C1722      H1728   1.111       .  S
C1729      C1730   1.394       .  A
C1729      C1734   1.391       .  A
C1729      H1736   1.081       .  S
C1730      C1731   1.416       .  A
C1731      C1732   1.406       .  A
C1731      C1738   1.505       .  S
C1732      C1733   1.400       .  A
C1732      H1737   1.084       .  S
C1733      C1734   1.418       .  A
C1734      C1735   1.510       .  S
C1735      H1739   1.110       .  S
C1735      H1740   1.111       .  S
C1735      H1741   1.106       .  S
C1738      H1742   1.110       .  S
C1738      H1743   1.109       .  S
C1738      H1744   1.111       .  S
C1745      C1746   1.402       .  A
C1745      C1750   1.416       .  A
C1745      H1752   1.084       .  S
C1746      C1747   1.414       .  A
C1747      C1748   1.399       .  A
C1747      C1754   1.504       .  S
C1748      C1749   1.405       .  A
C1748      H1753   1.084       .  S
C1749      C1750   1.425       .  A
C1750      C1751   1.506       .  S
C1751      H1755   1.111       .  S
C1751      H1756   1.110       .  S
C1751      H1757   1.110       .  S
C1754      H1758   1.106       .  S
C1754      H1759   1.106       .  S
C1754      H1760   1.111       .  S
C1761      C1762   1.414       .  A
C1761      C1766   1.413       .  A
C1761      H1768   1.083       .  S
C1762      C1763   1.419       .  A
C1763      C1764   1.391       .  A
C1763      C1770   1.514       .  S
C1764      C1765   1.407       .  A
C1764      H1769   1.084       .  S
C1765      C1766   1.411       .  A
C1766      C1767   1.504       .  S
C1767      H1771   1.111       .  S
C1767      H1772   1.110       .  S
C1767      H1773   1.110       .  S
C1770      H1774   1.109       .  S
C1770      H1775   1.106       .  S
C1770      H1776   1.111       .  S
C1777      C1778   1.404       .  A
C1777      C1782   1.405       .  A
C1777      H1784   1.084       .  S
C1778      C1779   1.423       .  A
C1779      C1780   1.401       .  A
C1779      C1786   1.511       .  S
C1780      C1781   1.402       .  A
C1780      H1785   1.084       .  S
C1781      C1782   1.422       .  A
C1782      C1783   1.510       .  S
C1783      H1787   1.111       .  S
C1783      H1788   1.106       .  S
C1783      H1789   1.110       .  S
C1786      H1790   1.109       .  S
C1786      H1791   1.110       .  S
C1786      H1792   1.111       .  S
C1793      C1794   1.409       .  A
C1793      C1798   1.409   1_565  A
C1793      H1800   1.084       .  S
C1794      C1795   1.423       .  A
C1795      C1796   1.402   1_565  A
C1795      C1802   1.508       .  S
C1796      C1797   1.399       .  A
C1796      H1801   1.085       .  S
C1797      C1798   1.410       .  A
C1798      C1799   1.506       .  S
C1799      H1803   1.111   1_545  S
C1799      H1804   1.110       .  S
C1799      H1805   1.111       .  S
C1802      H1806   1.110       .  S
C1802      H1807   1.109       .  S
C1802      H1808   1.111       .  S
C1809      C1810   1.413       .  A
C1809      C1814   1.400       .  A
C1809      H1816   1.083       .  S
C1810      C1811   1.418       .  A
C1811      C1812   1.413       .  A
C1811      C1818   1.506       .  S
C1812      C1813   1.408       .  A
C1812      H1817   1.084       .  S
C1813      C1814   1.410       .  A
C1814      C1815   1.510       .  S
C1815      H1819   1.111       .  S
C1815      H1820   1.110       .  S
C1815      H1821   1.109       .  S
C1818      H1822   1.110       .  S
C1818      H1823   1.110       .  S
C1818      H1824   1.111       .  S
C1825      C1826   1.402       .  A
C1825      C1830   1.405       .  A
C1825      H1832   1.084       .  S
C1826      C1827   1.425       .  A
C1827      C1828   1.395       .  A
C1827      C1834   1.513       .  S
C1828      C1829   1.399       .  A
C1828      H1833   1.084       .  S
C1829      C1830   1.419       .  A
C1830      C1831   1.505       .  S
C1831      H1835   1.111       .  S
C1831      H1836   1.110       .  S
C1831      H1837   1.108       .  S
C1834      H1838   1.110       .  S
C1834      H1839   1.106       .  S
C1834      H1840   1.111       .  S
C1841      C1842   1.409       .  A
C1841      C1846   1.408       .  A
C1841      H1848   1.085       .  S
C1842      C1843   1.406       .  A
C1843      C1844   1.397       .  A
C1843      C1850   1.507       .  S
C1844      C1845   1.406       .  A
C1844      H1849   1.085       .  S
C1845      C1846   1.410       .  A
C1846      C1847   1.506       .  S
C1847      H1851   1.111       .  S
C1847      H1852   1.111       .  S
C1847      H1853   1.110       .  S
C1850      H1854   1.109       .  S
C1850      H1855   1.111       .  S
C1850      H1856   1.111       .  S
C1857      C1858   1.406       .  A
C1857      C1862   1.393       .  A
C1857      H1864   1.082       .  S
C1858      C1859   1.408       .  A
C1859      C1860   1.407       .  A
C1859      C1866   1.501       .  S
C1860      C1861   1.408       .  A
C1860      H1865   1.083       .  S
C1861      C1862   1.409       .  A
C1862      C1863   1.510       .  S
C1863      H1867   1.111       .  S
C1863      H1868   1.110       .  S
C1863      H1869   1.108       .  S
C1866      H1870   1.110       .  S
C1866      H1871   1.108       .  S
C1866      H1872   1.110       .  S
C1873      C1874   1.406   1_655  A
C1873      C1878   1.409       .  A
C1873      H1880   1.084       .  S
C1874      C1875   1.416       .  A
C1875      C1876   1.410       .  A
C1875      C1882   1.507       .  S
C1876      C1877   1.406   1_455  A
C1876      H1881   1.084       .  S
C1877      C1878   1.415       .  A
C1878      C1879   1.507       .  S
C1879      H1883   1.111       .  S
C1879      H1884   1.110       .  S
C1879      H1885   1.110       .  S
C1882      H1886   1.110       .  S
C1882      H1887   1.110       .  S
C1882      H1888   1.111       .  S
C1889      C1890   1.407       .  A
C1889      C1894   1.406       .  A
C1889      H1896   1.084       .  S
C1890      C1891   1.407       .  A
C1891      C1892   1.403       .  A
C1891      C1898   1.506       .  S
C1892      C1893   1.402       .  A
C1892      H1897   1.081       .  S
C1893      C1894   1.406       .  A
C1894      C1895   1.506       .  S
C1895      H1899   1.110       .  S
C1895      H1900   1.109       .  S
C1895      H1901   1.110       .  S
C1898      H1902   1.110       .  S
C1898      H1903   1.111       .  S
C1898      H1904   1.110       .  S
C1905      C1906   1.409   1_455  A
C1905      C1910   1.415       .  A
C1905      H1912   1.084       .  S
C1906      C1907   1.424       .  A
C1907      C1908   1.404       .  A
C1907      C1914   1.512       .  S
C1908      C1909   1.401       .  A
C1908      H1913   1.085       .  S
C1909      C1910   1.413   1_655  A
C1910      C1911   1.505       .  S
C1911      H1915   1.111       .  S
C1911      H1916   1.110       .  S
C1911      H1917   1.110       .  S
C1914      H1918   1.110       .  S
C1914      H1919   1.109       .  S
C1914      H1920   1.111       .  S
C1921      C1922   1.407   1_655  A
C1921      C1926   1.410   1_565  A
C1921      H1928   1.083       .  S
C1922      C1923   1.419       .  A
C1923      C1924   1.407   1_565  A
C1923      C1930   1.508       .  S
C1924      C1925   1.403       .  A
C1924      H1929   1.084       .  S
C1925      C1926   1.414   1_455  A
C1926      C1927   1.506       .  S
C1927      H1931   1.111   1_545  S
C1927      H1932   1.110       .  S
C1927      H1933   1.109   1_655  S
C1930      H1934   1.110   1_455  S
C1930      H1935   1.109       .  S
C1930      H1936   1.111   1_565  S
C1937      C1938   1.404   1_655  A
C1937      C1942   1.412       .  A
C1937      H1944   1.084       .  S
C1938      C1939   1.413       .  A
C1939      C1940   1.409       .  A
C1939      C1946   1.506       .  S
C1940      C1941   1.407   1_455  A
C1940      H1945   1.084       .  S
C1941      C1942   1.422       .  A
C1942      C1943   1.507       .  S
C1943      H1947   1.111       .  S
C1943      H1948   1.110       .  S
C1943      H1949   1.109       .  S
C1946      H1950   1.110       .  S
C1946      H1951   1.110       .  S
C1946      H1952   1.111       .  S
C1953      C1954   1.402       .  A
C1953      C1958   1.399       .  A
C1953      H1960   1.085       .  S
C1954      C1955   1.407       .  A
C1955      C1956   1.403       .  A
C1955      C1962   1.508       .  S
C1956      C1957   1.406       .  A
C1956      H1961   1.085       .  S
C1957      C1958   1.410       .  A
C1958      C1959   1.507       .  S
C1959      H1963   1.111       .  S
C1959      H1964   1.109       .  S
C1959      H1965   1.110       .  S
C1962      H1966   1.110       .  S
C1962      H1967   1.110       .  S
C1962      H1968   1.111       .  S
C1969      C1970   1.404       .  A
C1969      C1974   1.406       .  A
C1969      H1976   1.084       .  S
C1970      C1971   1.414       .  A
C1971      C1972   1.398       .  A
C1971      C1978   1.510       .  S
C1972      C1973   1.406       .  A
C1972      H1977   1.083       .  S
C1973      C1974   1.418       .  A
C1974      C1975   1.508       .  S
C1975      H1979   1.111       .  S
C1975      H1980   1.110       .  S
C1975      H1981   1.108       .  S
C1978      H1982   1.110       .  S
C1978      H1983   1.110       .  S
C1978      H1984   1.111       .  S
C1985      C1986   1.395       .  A
C1985      C1990   1.401       .  A
C1985      H1992   1.084       .  S
C1986      C1987   1.420       .  A
C1987      C1988   1.397       .  A
C1987      C1994   1.507       .  S
C1988      C1989   1.394       .  A
C1988      H1993   1.084       .  S
C1989      C1990   1.417       .  A
C1990      C1991   1.503       .  S
C1991      H1995   1.111       .  S
C1991      H1996   1.107       .  S
C1991      H1997   1.109       .  S
C1994      H1998   1.111   1_565  S
C1994      H1999   1.104   1_565  S
C1994      H2000   1.111       .  S
C2001      C2002   1.409       .  A
C2001      C2006   1.393       .  A
C2001      H2008   1.083       .  S
C2002      C2003   1.411       .  A
C2003      C2004   1.405       .  A
C2003      C2010   1.507       .  S
C2004      C2005   1.406       .  A
C2004      H2009   1.083       .  S
C2005      C2006   1.402       .  A
C2006      C2007   1.508       .  S
C2007      H2011   1.111       .  S
C2007      H2012   1.110       .  S
C2007      H2013   1.110       .  S
C2010      H2014   1.110       .  S
C2010      H2015   1.111       .  S
C2010      H2016   1.111       .  S
C2017      C2018   1.409       .  A
C2017      C2022   1.391       .  A
C2017      H2024   1.083       .  S
C2018      C2019   1.411       .  A
C2019      C2020   1.407       .  A
C2019      C2026   1.507       .  S
C2020      C2021   1.409       .  A
C2020      H2025   1.084       .  S
C2021      C2022   1.405       .  A
C2022      C2023   1.510       .  S
C2023      H2027   1.111       .  S
C2023      H2028   1.108       .  S
C2023      H2029   1.110       .  S
C2026      H2030   1.111       .  S
C2026      H2031   1.110       .  S
C2026      H2032   1.111       .  S
C2033      C2034   1.405       .  A
C2033      C2038   1.392       .  A
C2033      H2040   1.083       .  S
C2034      C2035   1.409       .  A
C2035      C2036   1.408       .  A
C2035      C2042   1.503       .  S
C2036      C2037   1.409       .  A
C2036      H2041   1.084       .  S
C2037      C2038   1.409       .  A
C2038      C2039   1.511       .  S
C2039      H2043   1.111       .  S
C2039      H2044   1.108       .  S
C2039      H2045   1.110       .  S
C2042      H2046   1.110       .  S
C2042      H2047   1.110       .  S
C2042      H2048   1.111       .  S
C2049      C2050   1.411       .  A
C2049      C2054   1.401       .  A
C2049      H2056   1.083       .  S
C2050      C2051   1.420       .  A
C2051      C2052   1.413   1_545  A
C2051      C2058   1.506       .  S
C2052      C2053   1.407   1_565  A
C2052      H2057   1.084       .  S
C2053      C2054   1.414       .  A
C2054      C2055   1.510       .  S
C2055      H2059   1.111       .  S
C2055      H2060   1.109       .  S
C2055      H2061   1.110   1_545  S
C2058      H2062   1.110       .  S
C2058      H2063   1.110   1_545  S
C2058      H2064   1.111   1_545  S
C2065      C2066   1.404       .  A
C2065      C2070   1.402       .  A
C2065      H2072   1.083       .  S
C2066      C2067   1.410       .  A
C2067      C2068   1.407       .  A
C2067      C2074   1.503       .  S
C2068      C2069   1.406       .  A
C2068      H2073   1.085       .  S
C2069      C2070   1.410       .  A
C2070      C2071   1.506       .  S
C2071      H2075   1.109       .  S
C2071      H2076   1.110       .  S
C2071      H2077   1.109       .  S
C2074      H2078   1.103       .  S
C2074      H2079   1.110       .  S
C2074      H2080   1.111       .  S
C2081      C2082   1.406       .  A
C2081      C2086   1.398       .  A
C2081      H2088   1.085       .  S
C2082      C2083   1.411       .  A
C2083      C2084   1.408       .  A
C2083      C2090   1.503       .  S
C2084      C2085   1.408       .  A
C2084      H2089   1.084       .  S
C2085      C2086   1.410       .  A
C2086      C2087   1.509       .  S
C2087      H2091   1.111       .  S
C2087      H2092   1.110       .  S
C2087      H2093   1.108       .  S
C2090      H2094   1.110       .  S
C2090      H2095   1.110       .  S
C2090      H2096   1.111       .  S
C2097      C2098   1.405       .  A
C2097      C2102   1.411       .  A
C2097      H2104   1.084       .  S
C2098      C2099   1.420       .  A
C2099      C2100   1.395       .  A
C2099      C2106   1.514       .  S
C2100      C2101   1.402       .  A
C2100      H2105   1.084       .  S
C2101      C2102   1.419       .  A
C2102      C2103   1.504       .  S
C2103      H2107   1.111       .  S
C2103      H2108   1.110       .  S
C2103      H2109   1.106       .  S
C2106      H2110   1.109       .  S
C2106      H2111   1.111       .  S
C2106      H2112   1.111       .  S
C2113      C2114   1.403   1_545  A
C2113      C2118   1.405       .  A
C2113      H2120   1.084       .  S
C2114      C2115   1.412       .  A
C2115      C2116   1.406       .  A
C2115      C2122   1.507       .  S
C2116      C2117   1.406   1_565  A
C2116      H2121   1.084       .  S
C2117      C2118   1.418       .  A
C2118      C2119   1.508       .  S
C2119      H2123   1.111       .  S
C2119      H2124   1.109       .  S
C2119      H2125   1.110       .  S
C2122      H2126   1.109       .  S
C2122      H2127   1.111       .  S
C2122      H2128   1.111       .  S
C2129      C2130   1.411       .  A
C2129      C2134   1.413       .  A
C2129      H2136   1.084       .  S
C2130      C2131   1.409       .  A
C2131      C2132   1.395       .  A
C2131      C2138   1.510       .  S
C2132      C2133   1.407       .  A
C2132      H2137   1.084       .  S
C2133      C2134   1.414       .  A
C2134      C2135   1.506       .  S
C2135      H2139   1.111       .  S
C2135      H2140   1.110       .  S
C2135      H2141   1.110       .  S
C2138      H2142   1.110       .  S
C2138      H2143   1.108       .  S
C2138      H2144   1.111       .  S
C2145      C2146   1.409       .  A
C2145      C2150   1.395       .  A
C2145      H2152   1.084       .  S
C2146      C2147   1.411       .  A
C2147      C2148   1.412       .  A
C2147      C2154   1.502       .  S
C2148      C2149   1.411       .  A
C2148      H2153   1.084       .  S
C2149      C2150   1.411       .  A
C2150      C2151   1.511       .  S
C2151      H2155   1.111       .  S
C2151      H2156   1.109       .  S
C2151      H2157   1.110       .  S
C2154      H2158   1.109       .  S
C2154      H2159   1.110       .  S
C2154      H2160   1.111       .  S
C2161      C2162   1.403   1_545  A
C2161      C2166   1.412   1_556  A
C2161      H2168   1.084       .  S
C2162      C2163   1.420   1_565  A
C2163      C2164   1.407   1_556  A
C2163      C2170   1.504       .  S
C2164      C2165   1.403       .  A
C2164      H2169   1.084       .  S
C2165      C2166   1.422       .  A
C2166      C2167   1.503       .  S
C2167      H2171   1.111       .  S
C2167      H2172   1.110       .  S
C2167      H2173   1.100   1_545  S
C2170      H2174   1.109       .  S
C2170      H2175   1.104   1_545  S
C2170      H2176   1.111       .  S
C2177      C2178   1.411   1_565  A
C2177      C2182   1.400       .  A
C2177      H2184   1.083       .  S
C2178      C2179   1.419       .  A
C2179      C2180   1.406       .  A
C2179      C2186   1.507       .  S
C2180      C2181   1.404   1_545  A
C2180      H2185   1.084       .  S
C2181      C2182   1.411       .  A
C2182      C2183   1.509       .  S
C2183      H2187   1.111       .  S
C2183      H2188   1.109       .  S
C2183      H2189   1.110       .  S
C2186      H2190   1.110       .  S
C2186      H2191   1.110       .  S
C2186      H2192   1.111       .  S
C2193      C2194   1.401       .  A
C2193      C2198   1.400       .  A
C2193      H2200   1.083       .  S
C2194      C2195   1.407       .  A
C2195      C2196   1.407       .  A
C2195      C2202   1.505       .  S
C2196      C2197   1.408       .  A
C2196      H2201   1.085       .  S
C2197      C2198   1.409       .  A
C2198      C2199   1.507       .  S
C2199      H2203   1.111       .  S
C2199      H2204   1.110       .  S
C2199      H2205   1.109       .  S
C2202      H2206   1.108       .  S
C2202      H2207   1.110       .  S
C2202      H2208   1.111       .  S
C2209      C2210   1.406       .  A
C2209      C2214   1.413       .  A
C2209      H2216   1.084       .  S
C2210      C2211   1.423       .  A
C2211      C2212   1.402       .  A
C2211      C2218   1.512       .  S
C2212      C2213   1.404       .  A
C2212      H2217   1.083       .  S
C2213      C2214   1.422       .  A
C2214      C2215   1.507       .  S
C2215      H2219   1.111       .  S
C2215      H2220   1.110       .  S
C2215      H2221   1.110       .  S
C2218      H2222   1.111       .  S
C2218      H2223   1.109       .  S
C2218      H2224   1.111       .  S
C2225      C2226   1.407       .  A
C2225      C2230   1.393       .  A
C2225      H2232   1.085       .  S
C2226      C2227   1.410       .  A
C2227      C2228   1.407       .  A
C2227      C2234   1.505       .  S
C2228      C2229   1.408       .  A
C2228      H2233   1.084       .  S
C2229      C2230   1.408       .  A
C2230      C2231   1.510       .  S
C2231      H2235   1.111       .  S
C2231      H2236   1.110       .  S
C2231      H2237   1.108       .  S
C2234      H2238   1.110   1_554  S
C2234      H2239   1.109       .  S
C2234      H2240   1.111       .  S
C2241      C2242   1.402       .  A
C2241      C2246   1.391       .  A
C2241      H2248   1.083       .  S
C2242      C2243   1.416       .  A
C2243      C2244   1.412       .  A
C2243      C2250   1.501       .  S
C2244      C2245   1.406       .  A
C2244      H2249   1.084       .  S
C2245      C2246   1.418       .  A
C2246      C2247   1.514       .  S
C2247      H2251   1.111       .  S
C2247      H2252   1.108       .  S
C2247      H2253   1.106       .  S
C2250      H2254   1.110       .  S
C2250      H2255   1.106       .  S
C2250      H2256   1.111       .  S
C2257      C2258   1.398       .  A
C2257      C2262   1.398       .  A
C2257      H2264   1.085       .  S
C2258      C2259   1.418       .  A
C2259      C2260   1.409       .  A
C2259      C2266   1.500       .  S
C2260      C2261   1.401       .  A
C2260      H2265   1.084       .  S
C2261      C2262   1.418       .  A
C2262      C2263   1.507       .  S
C2263      H2267   1.111       .  S
C2263      H2268   1.108       .  S
C2263      H2269   1.109       .  S
C2266      H2270   1.101       .  S
C2266      H2271   1.110       .  S
C2266      H2272   1.111       .  S
C2273      C2274   1.409       .  A
C2273      C2278   1.417       .  A
C2273      H2280   1.084       .  S
C2274      C2275   1.422       .  A
C2275      C2276   1.394       .  A
C2275      C2282   1.516       .  S
C2276      C2277   1.402       .  A
C2276      H2281   1.083       .  S
C2277      C2278   1.418       .  A
C2278      C2279   1.505       .  S
C2279      H2283   1.111       .  S
C2279      H2284   1.110       .  S
C2279      H2285   1.110       .  S
C2282      H2286   1.110       .  S
C2282      H2287   1.108       .  S
C2282      H2288   1.110       .  S
C2289      C2290   1.405       .  A
C2289      C2294   1.398       .  A
C2289      H2296   1.085       .  S
C2290      C2291   1.410       .  A
C2291      C2292   1.406       .  A
C2291      C2298   1.507       .  S
C2292      C2293   1.408       .  A
C2292      H2297   1.084       .  S
C2293      C2294   1.410       .  A
C2294      C2295   1.509       .  S
C2295      H2299   1.111       .  S
C2295      H2300   1.110       .  S
C2295      H2301   1.109       .  S
C2298      H2302   1.110       .  S
C2298      H2303   1.110       .  S
C2298      H2304   1.111       .  S
C2305      C2306   1.406   1_556  A
C2305      C2310   1.408       .  A
C2305      H2312   1.084       .  S
C2306      C2307   1.411       .  A
C2307      C2308   1.407       .  A
C2307      C2314   1.506       .  S
C2308      C2309   1.407   1_554  A
C2308      H2313   1.084       .  S
C2309      C2310   1.412       .  A
C2310      C2311   1.506       .  S
C2311      H2315   1.111       .  S
C2311      H2316   1.110       .  S
C2311      H2317   1.109       .  S
C2314      H2318   1.110       .  S
C2314      H2319   1.109       .  S
C2314      H2320   1.111       .  S
C2321      C2322   1.408       .  A
C2321      C2326   1.409       .  A
C2321      H2328   1.085       .  S
C2322      C2323   1.407       .  A
C2323      C2324   1.395       .  A
C2323      C2330   1.509       .  S
C2324      C2325   1.404       .  A
C2324      H2329   1.079       .  S
C2325      C2326   1.409       .  A
C2326      C2327   1.502       .  S
C2327      H2331   1.111       .  S
C2327      H2332   1.111       .  S
C2327      H2333   1.105       .  S
C2330      H2334   1.108       .  S
C2330      H2335   1.110       .  S
C2330      H2336   1.111       .  S
C2337      C2338   1.406       .  A
C2337      C2342   1.409       .  A
C2337      H2344   1.084       .  S
C2338      C2339   1.423       .  A
C2339      C2340   1.392       .  A
C2339      C2346   1.513       .  S
C2340      C2341   1.399       .  A
C2340      H2345   1.084       .  S
C2341      C2342   1.417       .  A
C2342      C2343   1.501       .  S
C2343      H2347   1.111       .  S
C2343      H2348   1.107       .  S
C2343      H2349   1.110       .  S
C2346      H2350   1.103       .  S
C2346      H2351   1.110       .  S
C2346      H2352   1.111       .  S
C2353      C2354   1.402       .  A
C2353      C2358   1.405       .  A
C2353      H2360   1.084       .  S
C2354      C2355   1.411       .  A
C2355      C2356   1.396       .  A
C2355      C2362   1.510       .  S
C2356      C2357   1.406       .  A
C2356      H2361   1.083       .  S
C2357      C2358   1.420       .  A
C2358      C2359   1.508       .  S
C2359      H2363   1.111       .  S
C2359      H2364   1.108       .  S
C2359      H2365   1.110       .  S
C2362      H2366   1.110       .  S
C2362      H2367   1.109       .  S
C2362      H2368   1.111       .  S
C2369      C2370   1.406       .  A
C2369      C2374   1.406       .  A
C2369      H2376   1.084       .  S
C2370      C2371   1.425       .  A
C2371      C2372   1.404       .  A
C2371      C2378   1.510       .  S
C2372      C2373   1.401       .  A
C2372      H2377   1.085   1_554  S
C2373      C2374   1.417       .  A
C2374      C2375   1.505       .  S
C2375      H2379   1.111       .  S
C2375      H2380   1.104       .  S
C2375      H2381   1.110       .  S
C2378      H2382   1.103   1_554  S
C2378      H2383   1.110       .  S
C2378      H2384   1.111   1_554  S
C2385      C2386   1.402       .  A
C2385      C2390   1.399       .  A
C2385      H2392   1.083       .  S
C2386      C2387   1.406       .  A
C2387      C2388   1.397       .  A
C2387      C2394   1.507       .  S
C2388      C2389   1.409       .  A
C2388      H2393   1.085       .  S
C2389      C2390   1.410       .  A
C2390      C2391   1.501       .  S
C2391      H2395   1.111       .  S
C2391      H2396   1.106       .  S
C2391      H2397   1.105       .  S
C2394      H2398   1.111       .  S
C2394      H2399   1.109       .  S
C2394      H2400   1.110       .  S
C2401      C2402   1.402       .  A
C2401      C2406   1.394       .  A
C2401      H2408   1.083       .  S
C2402      C2403   1.413       .  A
C2403      C2404   1.406       .  A
C2403      C2410   1.507       .  S
C2404      C2405   1.408       .  A
C2404      H2409   1.084       .  S
C2405      C2406   1.418       .  A
C2406      C2407   1.512       .  S
C2407      H2411   1.111       .  S
C2407      H2412   1.110       .  S
C2407      H2413   1.110       .  S
C2410      H2414   1.109       .  S
C2410      H2415   1.110       .  S
C2410      H2416   1.111       .  S
C2417      C2418   1.397       .  A
C2417      C2422   1.396   1_455  A
C2417      H2424   1.085   1_556  S
C2418      C2419   1.418       .  A
C2419      C2420   1.414       .  A
C2419      C2426   1.506       .  S
C2420      C2421   1.409   1_455  A
C2420      H2425   1.083   1_455  S
C2421      C2422   1.430       .  A
C2422      C2423   1.512   1_556  S
C2423      H2427   1.111       .  S
C2423      H2428   1.106       .  S
C2423      H2429   1.110   1_554  S
C2426      H2430   1.106       .  S
C2426      H2431   1.110       .  S
C2426      H2432   1.111       .  S
C2433      C2434   1.412   1_556  A
C2433      C2438   1.397       .  A
C2433      H2440   1.083       .  S
C2434      C2435   1.412       .  A
C2435      C2436   1.403       .  A
C2435      C2442   1.507       .  S
C2436      C2437   1.410   1_554  A
C2436      H2441   1.082       .  S
C2437      C2438   1.413       .  A
C2438      C2439   1.510       .  S
C2439      H2443   1.111       .  S
C2439      H2444   1.110       .  S
C2439      H2445   1.110       .  S
C2442      H2446   1.110       .  S
C2442      H2447   1.110       .  S
C2442      H2448   1.111       .  S
C2449      C2450   1.398       .  A
C2449      C2454   1.406       .  A
C2449      H2456   1.084       .  S
C2450      C2451   1.420       .  A
C2451      C2452   1.394       .  A
C2451      C2458   1.506       .  S
C2452      C2453   1.392       .  A
C2452      H2457   1.085       .  S
C2453      C2454   1.417       .  A
C2454      C2455   1.503       .  S
C2455      H2459   1.106       .  S
C2455      H2460   1.110       .  S
C2455      H2461   1.107       .  S
C2458      H2462   1.105       .  S
C2458      H2463   1.110       .  S
C2458      H2464   1.111       .  S
C2465      C2466   1.398       .  A
C2465      C2470   1.400       .  A
C2465      H2472   1.084       .  S
C2466      C2467   1.420       .  A
C2467      C2468   1.407       .  A
C2467      C2474   1.502       .  S
C2468      C2469   1.400       .  A
C2468      H2473   1.083       .  S
C2469      C2470   1.423       .  A
C2470      C2471   1.510       .  S
C2471      H2475   1.111       .  S
C2471      H2476   1.109       .  S
C2471      H2477   1.108       .  S
C2474      H2478   1.110       .  S
C2474      H2479   1.110       .  S
C2474      H2480   1.106       .  S
C2481      C2482   1.406       .  A
C2481      C2486   1.412       .  A
C2481      H2488   1.084       .  S
C2482      C2483   1.419       .  A
C2483      C2484   1.388       .  A
C2483      C2490   1.509       .  S
C2484      C2485   1.399       .  A
C2484      H2489   1.084       .  S
C2485      C2486   1.419       .  A
C2486      C2487   1.506       .  S
C2487      H2491   1.111       .  S
C2487      H2492   1.108       .  S
C2487      H2493   1.110       .  S
C2490      H2494   1.097       .  S
C2490      H2495   1.111       .  S
C2490      H2496   1.111       .  S
C2497      C2498   1.398       .  A
C2497      C2502   1.400       .  A
C2497      H2504   1.085       .  S
C2498      C2499   1.417       .  A
C2499      C2500   1.394       .  A
C2499      C2506   1.497       .  S
C2500      C2501   1.391       .  A
C2500      H2505   1.085       .  S
C2501      C2502   1.415       .  A
C2502      C2503   1.503       .  S
C2503      H2507   1.111       .  S
C2503      H2508   1.109       .  S
C2503      H2509   1.108       .  S
C2506      H2510   1.102       .  S
C2506      H2511   1.110       .  S
C2506      H2512   1.107       .  S
C2513      C2514   1.403       .  A
C2513      C2518   1.402       .  A
C2513      H2520   1.084       .  S
C2514      C2515   1.405       .  A
C2515      C2516   1.403       .  A
C2515      C2522   1.505       .  S
C2516      C2517   1.406       .  A
C2516      H2521   1.084       .  S
C2517      C2518   1.405       .  A
C2518      C2519   1.505       .  S
C2519      H2523   1.111       .  S
C2519      H2524   1.110       .  S
C2519      H2525   1.110       .  S
C2522      H2526   1.110       .  S
C2522      H2527   1.110       .  S
C2522      H2528   1.111       .  S
C2529      C2530   1.411       .  A
C2529      C2534   1.400       .  A
C2529      H2536   1.085       .  S
C2530      C2531   1.411       .  A
C2531      C2532   1.410       .  A
C2531      C2538   1.505       .  S
C2532      C2533   1.411       .  A
C2532      H2537   1.082       .  S
C2533      C2534   1.409       .  A
C2534      C2535   1.509       .  S
C2535      H2539   1.111       .  S
C2535      H2540   1.111       .  S
C2535      H2541   1.109       .  S
C2538      H2542   1.110       .  S
C2538      H2543   1.109       .  S
C2538      H2544   1.111       .  S
C2545      C2546   1.410   1_545  A
C2545      C2550   1.412       .  A
C2545      H2552   1.084       .  S
C2546      C2547   1.421       .  A
C2547      C2548   1.407       .  A
C2547      C2554   1.508       .  S
C2548      C2549   1.402   1_565  A
C2548      H2553   1.083       .  S
C2549      C2550   1.412       .  A
C2550      C2551   1.505       .  S
C2551      H2555   1.111       .  S
C2551      H2556   1.110       .  S
C2551      H2557   1.110       .  S
C2554      H2558   1.110       .  S
C2554      H2559   1.109       .  S
C2554      H2560   1.111       .  S
C2561      C2562   1.394       .  A
C2561      C2566   1.395       .  A
C2561      H2568   1.085       .  S
C2562      C2563   1.417       .  A
C2563      C2564   1.403       .  A
C2563      C2570   1.504       .  S
C2564      C2565   1.398       .  A
C2564      H2569   1.084       .  S
C2565      C2566   1.418       .  A
C2566      C2567   1.507       .  S
C2567      H2571   1.111       .  S
C2567      H2572   1.110       .  S
C2567      H2573   1.107       .  S
C2570      H2574   1.106       .  S
C2570      H2575   1.110       .  S
C2570      H2576   1.111       .  S
C2577      C2578   1.401       .  A
C2577      C2582   1.409       .  A
C2577      H2584   1.084       .  S
C2578      C2579   1.420       .  A
C2579      C2580   1.404       .  A
C2579      C2586   1.510       .  S
C2580      C2581   1.399       .  A
C2580      H2585   1.084       .  S
C2581      C2582   1.420       .  A
C2582      C2583   1.504       .  S
C2583      H2587   1.111       .  S
C2583      H2588   1.107       .  S
C2583      H2589   1.103       .  S
C2586      H2590   1.108       .  S
C2586      H2591   1.110       .  S
C2586      H2592   1.111       .  S
C2593      C2594   1.405   1_545  A
C2593      C2598   1.412       .  A
C2593      H2600   1.084   1_545  S
C2594      C2595   1.417       .  A
C2595      C2596   1.412   1_565  A
C2595      C2602   1.507       .  S
C2596      C2597   1.407       .  A
C2596      H2601   1.084       .  S
C2597      C2598   1.420       .  A
C2598      C2599   1.507       .  S
C2599      H2603   1.111       .  S
C2599      H2604   1.110       .  S
C2599      H2605   1.109   1_545  S
C2602      H2606   1.110   1_565  S
C2602      H2607   1.107       .  S
C2602      H2608   1.111   1_565  S
C2609      C2610   1.407       .  A
C2609      C2614   1.388       .  A
C2609      H2616   1.083       .  S
C2610      C2611   1.415       .  A
C2611      C2612   1.412       .  A
C2611      C2618   1.502       .  S
C2612      C2613   1.411       .  A
C2612      H2617   1.084       .  S
C2613      C2614   1.419       .  A
C2614      C2615   1.516       .  S
C2615      H2619   1.111       .  S
C2615      H2620   1.107   1_545  S
C2615      H2621   1.110       .  S
C2618      H2622   1.109       .  S
C2618      H2623   1.110       .  S
C2618      H2624   1.111       .  S
C2625      C2626   1.408       .  A
C2625      C2630   1.412       .  A
C2625      H2632   1.082       .  S
C2626      C2627   1.421       .  A
C2627      C2628   1.391       .  A
C2627      C2634   1.515       .  S
C2628      C2629   1.403       .  A
C2628      H2633   1.084       .  S
C2629      C2630   1.416       .  A
C2630      C2631   1.504       .  S
C2631      H2635   1.111       .  S
C2631      H2636   1.108       .  S
C2631      H2637   1.110       .  S
C2634      H2638   1.111       .  S
C2634      H2639   1.110       .  S
C2634      H2640   1.111       .  S
C2641      C2642   1.404       .  A
C2641      C2646   1.405       .  A
C2641      H2648   1.080       .  S
C2642      C2643   1.405       .  A
C2643      C2644   1.406       .  A
C2643      C2650   1.505       .  S
C2644      C2645   1.410       .  A
C2644      H2649   1.085       .  S
C2645      C2646   1.412       .  A
C2646      C2647   1.505       .  S
C2647      H2651   1.109       .  S
C2647      H2652   1.106       .  S
C2647      H2653   1.111       .  S
C2650      H2654   1.110       .  S
C2650      H2655   1.110       .  S
C2650      H2656   1.111       .  S
C2657      C2658   1.410   1_565  A
C2657      C2662   1.423   1_556  A
C2657      H2664   1.083       .  S
C2658      C2659   1.410       .  A
C2659      C2660   1.401   1_556  A
C2659      C2666   1.507       .  S
C2660      C2661   1.408   1_545  A
C2660      H2665   1.078       .  S
C2661      C2662   1.421       .  A
C2662      C2663   1.504       .  S
C2663      H2667   1.111       .  S
C2663      H2668   1.109       .  S
C2663      H2669   1.110       .  S
C2666      H2670   1.109       .  S
C2666      H2671   1.102       .  S
C2666      H2672   1.111       .  S
C2673      C2674   1.405   1_565  A
C2673      C2678   1.410       .  A
C2673      H2680   1.085       .  S
C2674      C2675   1.415       .  A
C2675      C2676   1.417   1_545  A
C2675      C2682   1.505       .  S
C2676      C2677   1.410       .  A
C2676      H2681   1.084       .  S
C2677      C2678   1.422       .  A
C2678      C2679   1.510       .  S
C2679      H2683   1.111       .  S
C2679      H2684   1.110       .  S
C2679      H2685   1.111       .  S
C2682      H2686   1.110       .  S
C2682      H2687   1.111       .  S
C2682      H2688   1.111       .  S
C2689      C2690   1.402       .  A
C2689      C2694   1.392       .  A
C2689      H2696   1.082       .  S
C2690      C2691   1.418       .  A
C2691      C2692   1.413       .  A
C2691      C2698   1.506       .  S
C2692      C2693   1.408       .  A
C2692      H2697   1.084       .  S
C2693      C2694   1.417       .  A
C2694      C2695   1.513       .  S
C2695      H2699   1.111       .  S
C2695      H2700   1.109       .  S
C2695      H2701   1.110       .  S
C2698      H2702   1.110       .  S
C2698      H2703   1.109       .  S
C2698      H2704   1.111       .  S
C2705      C2706   1.402       .  A
C2705      C2710   1.394       .  A
C2705      H2712   1.078       .  S
C2706      C2707   1.415       .  A
C2707      C2708   1.409       .  A
C2707      C2714   1.506       .  S
C2708      C2709   1.405       .  A
C2708      H2713   1.084       .  S
C2709      C2710   1.409       .  A
C2710      C2711   1.511       .  S
C2711      H2715   1.107       .  S
C2711      H2716   1.107       .  S
C2711      H2717   1.110       .  S
C2714      H2718   1.111       .  S
C2714      H2719   1.109       .  S
C2714      H2720   1.111       .  S
C2721      C2722   1.407       .  A
C2721      C2726   1.405       .  A
C2721      H2728   1.084       .  S
C2722      C2723   1.417       .  A
C2723      C2724   1.389       .  A
C2723      C2730   1.512       .  S
C2724      C2725   1.399       .  A
C2724      H2729   1.082       .  S
C2725      C2726   1.412       .  A
C2726      C2727   1.506       .  S
C2727      H2731   1.109       .  S
C2727      H2732   1.108       .  S
C2727      H2733   1.110       .  S
C2730      H2734   1.110       .  S
C2730      H2735   1.110       .  S
C2730      H2736   1.111       .  S
C2737      C2738   1.411       .  A
C2737      C2742   1.405       .  A
C2737      H2744   1.084       .  S
C2738      C2739   1.409       .  A
C2739      C2740   1.398       .  A
C2739      C2746   1.507       .  S
C2740      C2741   1.407       .  A
C2740      H2745   1.085       .  S
C2741      C2742   1.405       .  A
C2742      C2743   1.505       .  S
C2743      H2747   1.111       .  S
C2743      H2748   1.110       .  S
C2743      H2749   1.110       .  S
C2746      H2750   1.109       .  S
C2746      H2751   1.110       .  S
C2746      H2752   1.111       .  S
C2753      C2754   1.408       .  A
C2753      C2758   1.389       .  A
C2753      H2760   1.084       .  S
C2754      C2755   1.422       .  A
C2755      C2756   1.411       .  A
C2755      C2762   1.506       .  S
C2756      C2757   1.399       .  A
C2756      H2761   1.080       .  S
C2757      C2758   1.408       .  A
C2758      C2759   1.509       .  S
C2759      H2763   1.111       .  S
C2759      H2764   1.110       .  S
C2759      H2765   1.110       .  S
C2762      H2766   1.110       .  S
C2762      H2767   1.110       .  S
C2762      H2768   1.111       .  S
C2769      C2770   1.410       .  A
C2769      C2774   1.394       .  A
C2769      H2776   1.083       .  S
C2770      C2771   1.410       .  A
C2771      C2772   1.410       .  A
C2771      C2778   1.503       .  S
C2772      C2773   1.405       .  A
C2772      H2777   1.080       .  S
C2773      C2774   1.401       .  A
C2774      C2775   1.505       .  S
C2775      H2779   1.111       .  S
C2775      H2780   1.111       .  S
C2775      H2781   1.104       .  S
C2778      H2782   1.110       .  S
C2778      H2783   1.110       .  S
C2778      H2784   1.111       .  S
C2785      C2786   1.408       .  A
C2785      C2790   1.395       .  A
C2785      H2792   1.077       .  S
C2786      C2787   1.418       .  A
C2787      C2788   1.411       .  A
C2787      C2794   1.507       .  S
C2788      C2789   1.409       .  A
C2788      H2793   1.085       .  S
C2789      C2790   1.406       .  A
C2790      C2791   1.510       .  S
C2791      H2795   1.111       .  S
C2791      H2796   1.109       .  S
C2791      H2797   1.110       .  S
C2794      H2798   1.111       .  S
C2794      H2799   1.103       .  S
C2794      H2800   1.111       .  S
C2801      C2802   1.402       .  A
C2801      C2806   1.397       .  A
C2801      H2808   1.076       .  S
C2802      C2803   1.409       .  A
C2803      C2804   1.402       .  A
C2803      C2810   1.506       .  S
C2804      C2805   1.404       .  A
C2804      H2809   1.084       .  S
C2805      C2806   1.404       .  A
C2806      C2807   1.507       .  S
C2807      H2811   1.111       .  S
C2807      H2812   1.110       .  S
C2807      H2813   1.110       .  S
C2810      H2814   1.110       .  S
C2810      H2815   1.107       .  S
C2810      H2816   1.111       .  S
C2817      C2818   1.406       .  A
C2817      C2822   1.398       .  A
C2817      H2824   1.084       .  S
C2818      C2819   1.424       .  A
C2819      C2820   1.416       .  A
C2819      C2826   1.505       .  S
C2820      C2821   1.405       .  A
C2820      H2825   1.084       .  S
C2821      C2822   1.413       .  A
C2822      C2823   1.501       .  S
C2823      H2827   1.110       .  S
C2823      H2828   1.103       .  S
C2823      H2829   1.108       .  S
C2826      H2830   1.110       .  S
C2826      H2831   1.110       .  S
C2826      H2832   1.111       .  S
C2833      C2834   1.407       .  A
C2833      C2838   1.396       .  A
C2833      H2840   1.083       .  S
C2834      C2835   1.421       .  A
C2835      C2836   1.407       .  A
C2835      C2842   1.507       .  S
C2836      C2837   1.402       .  A
C2836      H2841   1.084       .  S
C2837      C2838   1.412       .  A
C2838      C2839   1.510       .  S
C2839      H2843   1.111       .  S
C2839      H2844   1.109       .  S
C2839      H2845   1.110       .  S
C2842      H2846   1.110       .  S
C2842      H2847   1.110       .  S
C2842      H2848   1.111       .  S
C2849      C2850   1.400       .  A
C2849      C2854   1.389       .  A
C2849      H2856   1.079       .  S
C2850      C2851   1.418       .  A
C2851      C2852   1.415       .  A
C2851      C2858   1.504       .  S
C2852      C2853   1.407       .  A
C2852      H2857   1.084       .  S
C2853      C2854   1.412       .  A
C2854      C2855   1.512       .  S
C2855      H2859   1.111       .  S
C2855      H2860   1.111       .  S
C2855      H2861   1.107       .  S
C2858      H2862   1.110       .  S
C2858      H2863   1.110       .  S
C2858      H2864   1.111       .  S
C2865      C2866   1.406       .  A
C2865      C2870   1.396       .  A
C2865      H2872   1.083       .  S
C2866      C2867   1.413       .  A
C2867      C2868   1.410       .  A
C2867      C2874   1.505       .  S
C2868      C2869   1.411       .  A
C2868      H2873   1.083       .  S
C2869      C2870   1.412       .  A
C2870      C2871   1.511       .  S
C2871      H2875   1.111       .  S
C2871      H2876   1.108       .  S
C2871      H2877   1.111       .  S
C2874      H2878   1.107       .  S
C2874      H2879   1.110       .  S
C2874      H2880   1.111       .  S
C2881      C2882   1.407       .  A
C2881      C2886   1.395       .  A
C2881      H2888   1.081       .  S
C2882      C2883   1.410       .  A
C2883      C2884   1.412       .  A
C2883      C2890   1.506       .  S
C2884      C2885   1.413       .  A
C2884      H2889   1.084       .  S
C2885      C2886   1.407       .  A
C2886      C2887   1.509       .  S
C2887      H2891   1.111       .  S
C2887      H2892   1.108       .  S
C2887      H2893   1.110       .  S
C2890      H2894   1.110       .  S
C2890      H2895   1.110       .  S
C2890      H2896   1.111       .  S
C2897      C2898   1.412       .  A
C2897      C2902   1.410       .  A
C2897      H2904   1.083       .  S
C2898      C2899   1.426       .  A
C2899      C2900   1.405       .  A
C2899      C2906   1.510       .  S
C2900      C2901   1.400       .  A
C2900      H2905   1.085       .  S
C2901      C2902   1.408       .  A
C2902      C2903   1.505       .  S
C2903      H2907   1.111       .  S
C2903      H2908   1.110       .  S
C2903      H2909   1.110       .  S
C2906      H2910   1.109       .  S
C2906      H2911   1.110       .  S
C2906      H2912   1.111       .  S
C2913      C2914   1.399       .  A
C2913      C2918   1.402       .  A
C2913      H2920   1.085       .  S
C2914      C2915   1.421       .  A
C2915      C2916   1.391       .  A
C2915      C2922   1.507       .  S
C2916      C2917   1.394       .  A
C2916      H2921   1.085       .  S
C2917      C2918   1.422       .  A
C2918      C2919   1.507       .  S
C2919      H2923   1.109       .  S
C2919      H2924   1.099       .  S
C2919      H2925   1.109       .  S
C2922      H2926   1.109       .  S
C2922      H2927   1.097       .  S
C2922      H2928   1.111       .  S
C2929      C2930   1.399       .  A
C2929      C2934   1.392       .  A
C2929      H2936   1.084       .  S
C2930      C2931   1.420       .  A
C2931      C2932   1.407       .  A
C2931      C2938   1.505       .  S
C2932      C2933   1.404       .  A
C2932      H2937   1.084       .  S
C2933      C2934   1.425       .  A
C2934      C2935   1.514       .  S
C2935      H2939   1.111       .  S
C2935      H2940   1.110       .  S
C2935      H2941   1.107       .  S
C2938      H2942   1.106       .  S
C2938      H2943   1.110       .  S
C2938      H2944   1.111       .  S
C2945      C2946   1.402       .  A
C2945      C2950   1.410       .  A
C2945      H2952   1.084       .  S
C2946      C2947   1.411       .  A
C2947      C2948   1.390       .  A
C2947      C2954   1.505       .  S
C2948      C2949   1.401       .  A
C2948      H2953   1.082       .  S
C2949      C2950   1.421       .  A
C2950      C2951   1.504       .  S
C2951      H2955   1.111       .  S
C2951      H2956   1.110       .  S
C2951      H2957   1.107       .  S
C2954      H2958   1.110       .  S
C2954      H2959   1.106       .  S
C2954      H2960   1.111       .  S
C2961      C2962   1.397       .  A
C2961      C2966   1.399       .  A
C2961      H2968   1.085       .  S
C2962      C2963   1.416       .  A
C2963      C2964   1.401       .  A
C2963      C2970   1.504       .  S
C2964      C2965   1.400       .  A
C2964      H2969   1.082       .  S
C2965      C2966   1.422       .  A
C2966      C2967   1.509       .  S
C2967      H2971   1.111       .  S
C2967      H2972   1.109       .  S
C2967      H2973   1.109       .  S
C2970      H2974   1.104       .  S
C2970      H2975   1.110   1_455  S
C2970      H2976   1.108       .  S
C2977      C2978   1.402   1_455  A
C2977      C2982   1.407       .  A
C2977      H2984   1.085   1_455  S
C2978      C2979   1.423       .  A
C2979      C2980   1.411   1_655  A
C2979      C2986   1.508       .  S
C2980      C2981   1.407       .  A
C2980      H2985   1.085       .  S
C2981      C2982   1.426       .  A
C2982      C2983   1.509       .  S
C2983      H2987   1.111       .  S
C2983      H2988   1.098       .  S
C2983      H2989   1.111       .  S
C2986      H2990   1.100       .  S
C2986      H2991   1.109       .  S
C2986      H2992   1.110       .  S
C2993      C2994   1.411       .  A
C2993      C2998   1.409       .  A
C2993      H3000   1.084       .  S
C2994      C2995   1.424       .  A
C2995      C2996   1.407       .  A
C2995      C3002   1.509       .  S
C2996      C2997   1.402       .  A
C2996      H3001   1.083       .  S
C2997      C2998   1.413       .  A
C2998      C2999   1.508       .  S
C2999      H3003   1.111       .  S
C2999      H3004   1.106       .  S
C2999      H3005   1.110       .  S
C3002      H3006   1.109       .  S
C3002      H3007   1.110       .  S
C3002      H3008   1.111       .  S
C3009      C3010   1.404       .  A
C3009      C3014   1.403       .  A
C3009      H3016   1.082       .  S
C3010      C3011   1.409       .  A
C3011      C3012   1.404       .  A
C3011      C3018   1.507       .  S
C3012      C3013   1.404       .  A
C3012      H3017   1.084       .  S
C3013      C3014   1.405       .  A
C3014      C3015   1.504       .  S
C3015      H3019   1.108       .  S
C3015      H3020   1.110       .  S
C3015      H3021   1.110       .  S
C3018      H3022   1.111       .  S
C3018      H3023   1.110       .  S
C3018      H3024   1.111       .  S
C3025      C3026   1.404       .  A
C3025      C3030   1.405       .  A
C3025      H3032   1.084       .  S
C3026      C3027   1.406       .  A
C3027      C3028   1.402       .  A
C3027      C3034   1.505       .  S
C3028      C3029   1.403       .  A
C3028      H3033   1.083       .  S
C3029      C3030   1.407       .  A
C3030      C3031   1.504       .  S
C3031      H3035   1.110       .  S
C3031      H3036   1.111       .  S
C3031      H3037   1.110       .  S
C3034      H3038   1.110       .  S
C3034      H3039   1.110       .  S
C3034      H3040   1.109       .  S
C3041      C3042   1.402       .  A
C3041      C3046   1.392       .  A
C3041      H3048   1.080       .  S
C3042      C3043   1.414       .  A
C3043      C3044   1.409       .  A
C3043      C3050   1.505       .  S
C3044      C3045   1.406       .  A
C3044      H3049   1.084       .  S
C3045      C3046   1.412       .  A
C3046      C3047   1.513       .  S
C3047      H3051   1.111       .  S
C3047      H3052   1.108       .  S
C3047      H3053   1.110       .  S
C3050      H3054   1.110       .  S
C3050      H3055   1.107       .  S
C3050      H3056   1.111       .  S
C3057      C3058   1.392       .  A
C3057      C3062   1.399       .  A
C3057      H3064   1.085       .  S
C3058      C3059   1.420       .  A
C3059      C3060   1.408       .  A
C3059      C3066   1.506       .  S
C3060      C3061   1.399       .  A
C3060      H3065   1.084       .  S
C3061      C3062   1.425       .  A
C3062      C3063   1.504       .  S
C3063      H3067   1.101       .  S
C3063      H3068   1.111       .  S
C3063      H3069   1.110       .  S
C3066      H3070   1.110       .  S
C3066      H3071   1.108       .  S
C3066      H3072   1.111       .  S
C3073      C3074   1.395       .  A
C3073      C3078   1.399       .  A
C3073      H3080   1.085       .  S
C3074      C3075   1.417       .  A
C3075      C3076   1.405       .  A
C3075      C3082   1.506       .  S
C3076      C3077   1.400       .  A
C3076      H3081   1.084       .  S
C3077      C3078   1.418       .  A
C3078      C3079   1.504       .  S
C3079      H3083   1.109       .  S
C3079      H3084   1.105       .  S
C3079      H3085   1.111       .  S
C3082      H3086   1.108       .  S
C3082      H3087   1.110       .  S
C3082      H3088   1.108       .  S
C3089      C3090   1.401       .  A
C3089      C3094   1.394       .  A
C3089      H3096   1.084       .  S
C3090      C3091   1.417       .  A
C3091      C3092   1.409       .  A
C3091      C3098   1.506       .  S
C3092      C3093   1.406       .  A
C3092      H3097   1.084       .  S
C3093      C3094   1.421       .  A
C3094      C3095   1.513       .  S
C3095      H3099   1.111       .  S
C3095      H3100   1.110       .  S
C3095      H3101   1.110       .  S
C3098      H3102   1.109       .  S
C3098      H3103   1.110       .  S
C3098      H3104   1.111       .  S
C3105      C3106   1.408       .  A
C3105      C3110   1.395       .  A
C3105      H3112   1.084       .  S
C3106      C3107   1.410       .  A
C3107      C3108   1.411       .  A
C3107      C3114   1.505       .  S
C3108      C3109   1.411       .  A
C3108      H3113   1.084       .  S
C3109      C3110   1.403       .  A
C3110      C3111   1.508       .  S
C3111      H3115   1.111       .  S
C3111      H3116   1.110       .  S
C3111      H3117   1.110       .  S
C3114      H3118   1.109       .  S
C3114      H3119   1.109       .  S
C3114      H3120   1.111       .  S
C3121      C3122   1.395       .  A
C3121      C3126   1.394       .  A
C3121      H3128   1.086       .  S
C3122      C3123   1.415       .  A
C3123      C3124   1.409       .  A
C3123      C3130   1.501       .  S
C3124      C3125   1.406       .  A
C3124      H3129   1.084       .  S
C3125      C3126   1.430       .  A
C3126      C3127   1.516       .  S
C3127      H3131   1.111       .  S
C3127      H3132   1.103       .  S
C3127      H3133   1.110       .  S
C3130      H3134   1.106       .  S
C3130      H3135   1.110       .  S
C3130      H3136   1.110       .  S
C3137      C3138   1.409       .  A
C3137      C3142   1.415       .  A
C3137      H3144   1.084       .  S
C3138      C3139   1.422       .  A
C3139      C3140   1.407       .  A
C3139      C3146   1.509       .  S
C3140      C3141   1.403       .  A
C3140      H3145   1.085       .  S
C3141      C3142   1.415       .  A
C3142      C3143   1.505       .  S
C3143      H3147   1.111       .  S
C3143      H3148   1.110       .  S
C3143      H3149   1.110       .  S
C3146      H3150   1.110       .  S
C3146      H3151   1.110       .  S
C3146      H3152   1.111       .  S
C3153      C3154   1.409       .  A
C3153      C3158   1.405       .  A
C3153      H3160   1.085       .  S
C3154      C3155   1.412       .  A
C3155      C3156   1.402       .  A
C3155      C3162   1.509       .  S
C3156      C3157   1.404       .  A
C3156      H3161   1.084       .  S
C3157      C3158   1.409       .  A
C3158      C3159   1.506       .  S
C3159      H3163   1.111       .  S
C3159      H3164   1.110       .  S
C3159      H3165   1.109       .  S
C3162      H3166   1.111       .  S
C3162      H3167   1.109       .  S
C3162      H3168   1.111       .  S
C3169      C3170   1.410       .  A
C3169      C3174   1.404       .  A
C3169      H3176   1.084       .  S
C3170      C3171   1.424       .  A
C3171      C3172   1.392       .  A
C3171      C3178   1.512       .  S
C3172      C3173   1.394       .  A
C3172      H3177   1.085       .  S
C3173      C3174   1.409       .  A
C3174      C3175   1.506       .  S
C3175      H3179   1.110       .  S
C3175      H3180   1.109       .  S
C3175      H3181   1.111       .  S
C3178      H3182   1.110       .  S
C3178      H3183   1.109       .  S
C3178      H3184   1.111       .  S
C3185      C3186   1.412       .  A
C3185      C3190   1.405       .  A
C3185      H3192   1.083       .  S
C3186      C3187   1.423       .  A
C3187      C3188   1.398       .  A
C3187      C3194   1.510       .  S
C3188      C3189   1.397       .  A
C3188      H3193   1.085       .  S
C3189      C3190   1.406       .  A
C3190      C3191   1.507       .  S
C3191      H3195   1.111       .  S
C3191      H3196   1.111       .  S
C3191      H3197   1.110       .  S
C3194      H3198   1.109       .  S
C3194      H3199   1.111       .  S
C3194      H3200   1.111       .  S
C3201      C3202   1.405       .  A
C3201      C3206   1.394       .  A
C3201      H3208   1.084       .  S
C3202      C3203   1.419       .  A
C3203      C3204   1.411       .  A
C3203      C3210   1.506       .  S
C3204      C3205   1.406       .  A
C3204      H3209   1.084       .  S
C3205      C3206   1.415       .  A
C3206      C3207   1.512       .  S
C3207      H3211   1.111       .  S
C3207      H3212   1.110       .  S
C3207      H3213   1.110       .  S
C3210      H3214   1.110       .  S
C3210      H3215   1.108       .  S
C3210      H3216   1.111       .  S
C3217      C3218   1.412       .  A
C3217      C3222   1.407       .  A
C3217      H3224   1.084       .  S
C3218      C3219   1.421       .  A
C3219      C3220   1.409       .  A
C3219      C3226   1.507       .  S
C3220      C3221   1.403       .  A
C3220      H3225   1.083       .  S
C3221      C3222   1.409       .  A
C3222      C3223   1.507       .  S
C3223      H3227   1.111       .  S
C3223      H3228   1.110       .  S
C3223      H3229   1.110       .  S
C3226      H3230   1.110       .  S
C3226      H3231   1.110       .  S
C3226      H3232   1.111       .  S
C3233      C3234   1.398       .  A
C3233      C3238   1.407       .  A
C3233      H3240   1.084       .  S
C3234      C3235   1.419       .  A
C3235      C3236   1.407       .  A
C3235      C3242   1.505       .  S
C3236      C3237   1.400       .  A
C3236      H3241   1.084       .  S
C3237      C3238   1.422       .  A
C3238      C3239   1.508       .  S
C3239      H3243   1.111       .  S
C3239      H3244   1.109       .  S
C3239      H3245   1.110       .  S
C3242      H3246   1.110       .  S
C3242      H3247   1.107       .  S
C3242      H3248   1.111       .  S
C3249      C3250   1.408       .  A
C3249      C3254   1.416       .  A
C3249      H3256   1.083       .  S
C3250      C3251   1.405       .  A
C3251      C3252   1.391       .  A
C3251      C3258   1.510       .  S
C3252      C3253   1.412       .  A
C3252      H3257   1.084       .  S
C3253      C3254   1.417       .  A
C3254      C3255   1.506       .  S
C3255      H3259   1.111       .  S
C3255      H3260   1.110       .  S
C3255      H3261   1.111       .  S
C3258      H3262   1.110       .  S
C3258      H3263   1.110       .  S
C3258      H3264   1.111       .  S
C3265      C3266   1.405       .  A
C3265      C3270   1.391       .  A
C3265      H3272   1.082       .  S
C3266      C3267   1.409       .  A
C3267      C3268   1.404       .  A
C3267      C3274   1.507       .  S
C3268      C3269   1.407       .  A
C3268      H3273   1.082       .  S
C3269      C3270   1.406       .  A
C3270      C3271   1.510       .  S
C3271      H3275   1.111       .  S
C3271      H3276   1.108       .  S
C3271      H3277   1.110       .  S
C3274      H3278   1.111       .  S
C3274      H3279   1.110       .  S
C3274      H3280   1.111       .  S
C3281      C3282   1.409       .  A
C3281      C3286   1.397       .  A
C3281      H3288   1.082       .  S
C3282      C3283   1.413       .  A
C3283      C3284   1.411       .  A
C3283      C3290   1.505       .  S
C3284      C3285   1.408       .  A
C3284      H3289   1.084       .  S
C3285      C3286   1.403       .  A
C3286      C3287   1.508       .  S
C3287      H3291   1.111       .  S
C3287      H3292   1.110       .  S
C3287      H3293   1.110       .  S
C3290      H3294   1.109       .  S
C3290      H3295   1.110       .  S
C3290      H3296   1.111       .  S
C3297      C3298   1.407   1_554  A
C3297      C3302   1.408       .  A
C3297      H3304   1.084   1_554  S
C3298      C3299   1.420       .  A
C3299      C3300   1.408   1_556  A
C3299      C3306   1.505       .  S
C3300      C3301   1.402       .  A
C3300      H3305   1.084       .  S
C3301      C3302   1.413       .  A
C3302      C3303   1.504       .  S
C3303      H3307   1.111       .  S
C3303      H3308   1.110       .  S
C3303      H3309   1.108       .  S
C3306      H3310   1.110       .  S
C3306      H3311   1.104       .  S
C3306      H3312   1.111       .  S
C3313      C3314   1.403       .  A
C3313      C3318   1.403       .  A
C3313      H3320   1.085       .  S
C3314      C3315   1.420       .  A
C3315      C3316   1.418       .  A
C3315      C3322   1.506       .  S
C3316      C3317   1.406       .  A
C3316      H3321   1.084       .  S
C3317      C3318   1.415       .  A
C3318      C3319   1.504       .  S
C3319      H3323   1.111       .  S
C3319      H3324   1.107       .  S
C3319      H3325   1.105       .  S
C3322      H3326   1.111       .  S
C3322      H3327   1.109       .  S
C3322      H3328   1.111       .  S
C3329      C3330   1.407       .  A
C3329      C3334   1.405       .  A
C3329      H3336   1.085       .  S
C3330      C3331   1.408       .  A
C3331      C3332   1.400       .  A
C3331      C3338   1.507       .  S
C3332      C3333   1.404       .  A
C3332      H3337   1.085       .  S
C3333      C3334   1.407       .  A
C3334      C3335   1.507       .  S
C3335      H3339   1.111       .  S
C3335      H3340   1.111   1_556  S
C3335      H3341   1.110       .  S
C3338      H3342   1.110       .  S
C3338      H3343   1.109       .  S
C3338      H3344   1.111       .  S
C3345      C3346   1.409       .  A
C3345      C3350   1.411       .  A
C3345      H3352   1.084       .  S
C3346      C3347   1.413       .  A
C3347      C3348   1.397       .  A
C3347      C3354   1.510       .  S
C3348      C3349   1.405       .  A
C3348      H3353   1.082       .  S
C3349      C3350   1.411       .  A
C3350      C3351   1.502       .  S
C3351      H3355   1.107       .  S
C3351      H3356   1.108       .  S
C3351      H3357   1.111       .  S
C3354      H3358   1.110       .  S
C3354      H3359   1.109       .  S
C3354      H3360   1.111       .  S
