geometry optimzed in LAMMPS
_audit_creation_date              2020-11-30 
_audit_creation_method            'lammps2cif' 
_symmetry_space_group_name_H-M    'P1' 
_symmetry_Int_Tables_number       1 
_symmetry_cell_setting            triclinic 
loop_ 
_symmetry_equiv_pos_as_xyz 
  x,y,z 
_cell_length_a                    36.4253251 
_cell_length_b                    36.4757982110593 
_cell_length_c                    36.55612843555204 
_cell_angle_alpha                 88.4769182153751 
_cell_angle_beta                  92.8000012887996 
_cell_angle_gamma                 91.2044123721624 
loop_ 
_atom_site_label 
_atom_site_type_symbol 
_atom_site_fract_x 
_atom_site_fract_y 
_atom_site_fract_z 
_atom_site_charge 
N1          N  0.78111443  0.50928108  0.74659393    -0.36700
N2          N  0.83288120  0.51942799  0.68816933    -0.57300
N3          N  0.89353695  0.52543861  0.74159888    -0.36700
N4          N  0.84162248  0.51931602  0.80007048    -0.57300
C5          C  0.75720774  0.51661171  0.71789154     0.26900
C6          C  0.76242062  0.51068818  0.77766928     0.26900
C7          C  0.91182520  0.53164503  0.71065534     0.26900
C8          C  0.91540621  0.53725740  0.77003327     0.26900
C9          C  0.80134929  0.51559286  0.66744036     0.35500
C10         C  0.86066846  0.51719002  0.66515188     0.35500
C11         C  0.81573098  0.50664147  0.82275881     0.35500
C12         C  0.87366589  0.52016432  0.82027653     0.35500
C13         C  0.72255151  0.52164954  0.73089971    -0.22000
C14         C  0.72581284  0.51775798  0.76858247    -0.22000
C15         C  0.94613157  0.54704555  0.71958855    -0.22000
C16         C  0.94821146  0.55099441  0.75705476    -0.22000
C17         C  0.80914200  0.51168503  0.63102819    -0.23100
C18         C  0.84658523  0.51237017  0.62961148    -0.23100
C19         C  0.83130587  0.49974249  0.85752710    -0.23100
C20         C  0.86786122  0.50838837  0.85600593    -0.23100
C21         C  0.76544265  0.51745686  0.68025700    -0.18400
C22         C  0.77761201  0.50522727  0.81386272    -0.18400
C23         C  0.90808911  0.53226459  0.80750431    -0.18400
C24         C  0.89842726  0.52302841  0.67479208    -0.18400
H25         H  0.69745809  0.52745295  0.71490163     0.14500
H26         H  0.70379195  0.52017349  0.78715398     0.14500
H27         H  0.96744254  0.55472869  0.70108842     0.14500
H28         H  0.97160724  0.56175177  0.77305171     0.14500
H29         H  0.78988613  0.50894042  0.60772423     0.12800
H30         H  0.86157788  0.51078785  0.60488669     0.12800
H31         H  0.81768007  0.49018890  0.88175067     0.12800
H32         H  0.88778351  0.50626443  0.87884139     0.12800
H33         H  0.80789561  0.50058706  0.74503195     0.26000
H34         H  0.86954682  0.50987128  0.74353042     0.26000
N35         N  0.56342816  0.78594467  0.73195147    -0.36700
N36         N  0.55312558  0.72533341  0.78527556    -0.57300
N37         N  0.54858446  0.77776844  0.84362459    -0.36700
N38         N  0.56401815  0.83859409  0.79061571    -0.57300
C39         C  0.56767249  0.75715900  0.70999948     0.26900
C40         C  0.57146185  0.81702931  0.71259679     0.26900
C41         C  0.54781847  0.74606209  0.86394875     0.26900
C42         C  0.55313757  0.80600401  0.86689927     0.26900
C43         C  0.55321556  0.70569194  0.75445532     0.35500
C44         C  0.54575020  0.70122869  0.81282524     0.35500
C45         C  0.56262467  0.86247213  0.76147824     0.35500
C46         C  0.55687822  0.85808267  0.82039297     0.35500
C47         C  0.57840892  0.77009611  0.67607064    -0.22000
C48         C  0.58085940  0.80778055  0.67771520    -0.22000
C49         C  0.55063742  0.75447203  0.90077760    -0.22000
C50         C  0.55408873  0.79213338  0.90263119    -0.22000
C51         C  0.54632258  0.66891542  0.76257102    -0.23100
C52         C  0.54190653  0.66604366  0.79936137    -0.23100
C53         C  0.55515535  0.89729782  0.77297518    -0.23100
C54         C  0.55178042  0.89460476  0.81011520    -0.23100
C55         C  0.56033988  0.71969783  0.71898370    -0.18400
C56         C  0.56795127  0.85359179  0.72451473    -0.18400
C57         C  0.55509112  0.84401672  0.85696884    -0.18400
C58         C  0.54477530  0.70973464  0.85037669    -0.18400
H59         H  0.58351639  0.75408761  0.65239703     0.14500
H60         H  0.58821224  0.82630185  0.65550886     0.14500
H61         H  0.55050806  0.73543995  0.92399433     0.14500
H62         H  0.55701588  0.80753596  0.92753903     0.14500
H63         H  0.54511571  0.64621246  0.74405024     0.12800
H64         H  0.53695906  0.64057553  0.81426935     0.12800
H65         H  0.55206696  0.92212371  0.75634513     0.12800
H66         H  0.54550083  0.91701892  0.82743558     0.12800
H67         H  0.55166259  0.78468567  0.75708251     0.26000
H68         H  0.54364550  0.78037645  0.81563486     0.26000
N69         N  0.79811192  0.76612917  0.45461495    -0.36700
N70         N  0.74639294  0.82458841  0.44834673    -0.57300
N71         N  0.80412203  0.88071846  0.46038739    -0.36700
N72         N  0.85626776  0.82136487  0.46794912    -0.57300
C73         C  0.76637288  0.74694346  0.45882477     0.26900
C74         C  0.82557451  0.74551872  0.46960507     0.26900
C75         C  0.77379422  0.89953462  0.46857068     0.26900
C76         C  0.83455510  0.89862257  0.47461267     0.26900
C77         C  0.72418323  0.79622564  0.43769525     0.35500
C78         C  0.72664193  0.85534641  0.44280460     0.35500
C79         C  0.87607815  0.79113375  0.46295394     0.35500
C80         C  0.87954748  0.85030072  0.46362846     0.35500
C81         C  0.77388796  0.71340788  0.47611126    -0.22000
C82         C  0.81140952  0.71243239  0.48272146    -0.22000
C83         C  0.78529456  0.93052087  0.48753443    -0.22000
C84         C  0.82353441  0.93011870  0.49102660    -0.22000
C85         C  0.69054962  0.80909471  0.42423323    -0.23100
C86         C  0.69203205  0.84646360  0.42756165    -0.23100
C87         C  0.91182759  0.80074265  0.45503216    -0.23100
C88         C  0.91398127  0.83824820  0.45510691    -0.23100
C89         C  0.73100459  0.75908968  0.44718678    -0.18400
C90         C  0.86321697  0.75497429  0.46908427    -0.18400
C91         C  0.87166853  0.88672002  0.47259802    -0.18400
C92         C  0.73637764  0.88954724  0.45840738    -0.18400
H93         H  0.75442778  0.69186484  0.48321100     0.14500
H94         H  0.82655325  0.68997750  0.49566033     0.14500
H95         H  0.76795414  0.95132362  0.49770442     0.14500
H96         H  0.84113144  0.95029941  0.50470044     0.14500
H97         H  0.66661707  0.79297510  0.41535222     0.12800
H98         H  0.66937719  0.86474087  0.42158735     0.12800
H99         H  0.93418987  0.78259239  0.45044177     0.12800
H100        H  0.93854139  0.85466373  0.45069914     0.12800
H101        H  0.80134558  0.79043488  0.43942104     0.26000
H102        H  0.80434958  0.85804123  0.44373070     0.26000
O103        O  0.57687746  0.57288331  0.96249906    -0.81000
O104        O  0.63660758  0.41975873  0.98806783    -0.65700
O105        O  0.60167492  0.50777507  0.94394219    -1.12300
C106        C  0.48667736  0.46372174  0.98585990     1.05900
O107        O  0.58764657  0.38719897  0.96914056    -0.78900
O108        O  0.52672923  0.41614088  0.93747551    -0.66500
Ni109      Ni  0.62415397  0.55287176  0.95628565     1.34900
C110        C  0.53220196  0.43685500  0.90972496     0.84600
O111        O  0.66638067  0.47247295  0.94442214    -0.79500
O112        O  0.67218255  0.53366797  0.94859428    -0.89700
C113        C  0.62202613  0.39017823  0.97670171     0.84200
O114        O  0.62917661  0.54539411  0.00821141    -0.67900
O115        O  0.50563938  0.43918973  0.00306762    -0.87200
C116        C  0.63828950  0.51734271  0.02730816     0.85000
C117        C  0.68239738  0.50306033  0.93649901     1.06600
H118        H  0.57339161  0.46912010  0.01059868     0.38400
O119        O  0.57229251  0.46087347  0.98566685    -1.09900
O120        O  0.54508182  0.46967631  0.91239127    -0.66500
Ni121      Ni  0.55177322  0.49994745  0.95554700     1.26300
O122        O  0.63934420  0.48591618  0.01299525    -0.66800
O123        O  0.50116591  0.48947728  0.96661426    -0.79000
C124        C  0.55317535  0.57339575  0.93583550     0.84400
O125        O  0.53701214  0.54321840  0.92676463    -0.66200
Ni126      Ni  0.54740161  0.41489130  0.98643331     1.27400
Ni127      Ni  0.62038410  0.46507716  0.96710046     1.26100
H128        H  0.60354469  0.50549952  0.91782210     0.38900
O129        O  0.62899410  0.51896716  0.46572232    -0.81000
O130        O  0.56748376  0.57767079  0.61036483    -0.65700
O131        O  0.57396130  0.53747994  0.51442219    -1.12300
C132        C  0.61047399  0.66158254  0.48736341     1.05900
O133        O  0.53355889  0.61841988  0.58188291    -0.78900
O134        O  0.52314118  0.63946997  0.51350130    -0.66500
Ni135      Ni  0.60405135  0.49637849  0.50693026     1.34900
C136        C  0.51392190  0.61546623  0.49027751     0.84600
O137        O  0.55507144  0.50856841  0.58343679    -0.79500
O138        O  0.58061272  0.46923508  0.54571161    -0.89700
C139        C  0.54996602  0.60737534  0.61098155     0.84200
O140        O  0.64508458  0.50878221  0.53988264    -0.67900
O141        O  0.59333066  0.67003884  0.51532478    -0.87200
C142        C  0.64682673  0.52647205  0.56947903     0.85000
C143        C  0.56223974  0.47611761  0.57356388     1.06600
H144        H  0.61334249  0.60463306  0.54880327     0.38400
O145        O  0.58809008  0.60017696  0.54048796    -1.09900
O146        O  0.53677622  0.59262067  0.47906377    -0.66500
Ni147      Ni  0.58882864  0.58326441  0.49210395     1.26300
O148        O  0.62042271  0.54490879  0.58009845    -0.66800
O149        O  0.60669635  0.63010947  0.47252825    -0.79000
C150        C  0.61611159  0.53931486  0.43930094     0.84400
O151        O  0.59209954  0.56307403  0.44477302    -0.66200
Ni152      Ni  0.56309134  0.64398347  0.54848743     1.27400
Ni153      Ni  0.57102280  0.55529041  0.56316104     1.26100
H154        H  0.54935959  0.53093201  0.50547649     0.38900
O155        O  0.41854584  0.01114506  0.54527164    -0.81000
O156        O  0.57000346  0.95793032  0.48297534    -0.65700
O157        O  0.48204355  0.96845732  0.53659237    -1.12300
C158        C  0.54516358  0.07256679  0.58594525     1.05900
O159        O  0.60524158  0.97002037  0.53303807    -0.78900
O160        O  0.58077831  0.98573557  0.59820663    -0.66500
Ni161      Ni  0.43397923  0.97146329  0.51539410     1.34900
C162        C  0.55262381  0.96915456  0.61049926     0.84600
O163        O  0.50474922  0.91715831  0.48852588    -0.79500
O164        O  0.44416735  0.93042099  0.48616204    -0.89700
C165        C  0.60116833  0.95703691  0.50107373     0.84200
O166        O  0.44715168  0.00571757  0.47810063    -0.67900
O167        O  0.57479656  0.06070300  0.57367947    -0.87200
C168        C  0.47048527  0.00080666  0.45422140     0.85000
C169        C  0.47076634  0.90952730  0.48027913     1.06600
H170        H  0.53609622  0.02859949  0.51171916     0.38400
O171        O  0.53914536  0.00891000  0.52975269    -1.09900
O172        O  0.52045545  0.97667416  0.59840160    -0.66500
Ni173      Ni  0.49927059  0.01002302  0.56210474     1.26300
O174        O  0.50205469  0.98685619  0.46241528    -0.66800
O175        O  0.51614861  0.05288264  0.58711384    -0.79000
C176        C  0.42613544  0.01330441  0.57949541     0.84400
O177        O  0.45855975  0.00913176  0.59235213    -0.66200
Ni178      Ni  0.58748542  0.01420113  0.55316632     1.27400
Ni179      Ni  0.52379590  0.96325858  0.50750847     1.26100
H180        H  0.48125670  0.94742751  0.55291530     0.38900
N181        N  0.52082262  0.27421686  0.77855743    -0.36700
N182        N  0.52898045  0.22020317  0.72272007    -0.57300
N183        N  0.52369618  0.27678074  0.66472570    -0.36700
N184        N  0.51760938  0.33068784  0.72178162    -0.57300
C185        C  0.53172342  0.24497353  0.79963304     0.26900
C186        C  0.52609988  0.30457376  0.79889901     0.26900
C187        C  0.53708543  0.24848789  0.64642159     0.26900
C188        C  0.53238395  0.30836999  0.64635766     0.26900
C189        C  0.52461359  0.19744664  0.75209113     0.35500
C190        C  0.52632772  0.19887676  0.69299286     0.35500
C191        C  0.50805049  0.35047155  0.75046727     0.35500
C192        C  0.50929363  0.35112178  0.69129441     0.35500
C193        C  0.54341972  0.25677855  0.83411559    -0.22000
C194        C  0.54009334  0.29440639  0.83357749    -0.22000
C195        C  0.55360542  0.26206863  0.61539208    -0.22000
C196        C  0.55115926  0.29988331  0.61563557    -0.22000
C197        C  0.51924005  0.16163646  0.74097659    -0.23100
C198        C  0.52014726  0.16253709  0.70362266    -0.23100
C199        C  0.49294736  0.38333923  0.73822361    -0.23100
C200        C  0.49348659  0.38366135  0.70068407    -0.23100
C201        C  0.52929944  0.20786004  0.78896773    -0.18400
C202        C  0.51645202  0.34078126  0.78749507    -0.18400
C203        C  0.52283604  0.34428565  0.65654677    -0.18400
C204        C  0.53402515  0.21083596  0.65699584    -0.18400
H205        H  0.55314872  0.24006848  0.85735314     0.14500
H206        H  0.54673754  0.31216868  0.85631051     0.14500
H207        H  0.56673330  0.24641913  0.59513714     0.14500
H208        H  0.56191940  0.31889172  0.59541111     0.14500
H209        H  0.51606214  0.13716515  0.75800119     0.12800
H210        H  0.51787234  0.13880513  0.68645757     0.12800
H211        H  0.48364386  0.40524450  0.75466884     0.12800
H212        H  0.48513164  0.40614754  0.68243415     0.12800
H213        H  0.50682264  0.27298005  0.75313646     0.26000
H214        H  0.50704505  0.27437967  0.68704474     0.26000
O215        O  0.51428818  0.96856166  0.97418436    -0.81000
O216        O  0.45028015  0.12070147  0.98249239    -0.65700
O217        O  0.48538457  0.03207173  0.94923206    -1.12300
C218        C  0.60311368  0.08275735  0.98668309     1.05900
O219        O  0.49673114  0.15531320  0.96356181    -0.78900
O220        O  0.55540603  0.12660568  0.93411486    -0.66500
Ni221      Ni  0.46548341  0.98698443  0.96605025     1.34900
C222        C  0.54549901  0.10502039  0.90874084     0.84600
O223        O  0.41948217  0.06483523  0.94466005    -0.79500
O224        O  0.41566830  0.00365383  0.95477881    -0.89700
C225        C  0.46304423  0.15099613  0.97087947     0.84200
O226        O  0.46492578  0.99810430  0.01726363    -0.67900
O227        O  0.58530973  0.10801965  0.00109436    -0.87200
C228        C  0.45767453  0.02780095  0.03253754     0.85000
C229        C  0.40337260  0.03368167  0.94006752     1.06600
H230        H  0.51815299  0.07547271  0.01153132     0.38400
O231        O  0.51658892  0.08275012  0.98595944    -1.09900
O232        O  0.53547392  0.07159159  0.91450336    -0.66500
Ni233      Ni  0.53585090  0.04302678  0.96033061     1.26300
O234        O  0.45319997  0.05752166  0.01426675    -0.66800
O235        O  0.58708186  0.05611169  0.96995565    -0.79000
C236        C  0.53586775  0.96873312  0.94777296     0.84400
O237        O  0.54982280  0.99926202  0.93643564    -0.66200
Ni238      Ni  0.54011645  0.12957301  0.98284714     1.27400
Ni239      Ni  0.46708579  0.07545729  0.96676934     1.26100
H240        H  0.48117864  0.03250003  0.92291226     0.38900
N241        N  0.79480637  0.27866838  0.93239891    -0.36700
N242        N  0.74345346  0.21774283  0.94376178    -0.57300
N243        N  0.80110598  0.16405915  0.93821570    -0.36700
N244        N  0.85231352  0.22570761  0.92737163    -0.57300
C245        C  0.76581472  0.29678816  0.94432249     0.26900
C246        C  0.82489698  0.30079037  0.93730341     0.26900
C247        C  0.77474327  0.14306064  0.95389798     0.26900
C248        C  0.83369306  0.14773073  0.94615020     0.26900
C249        C  0.71945247  0.24560036  0.94084664     0.35500
C250        C  0.72304748  0.18635562  0.94425271     0.35500
C251        C  0.87173323  0.25674583  0.91983292     0.35500
C252        C  0.87474751  0.19749309  0.92229677     0.35500
C253        C  0.77731665  0.33151886  0.95516708    -0.22000
C254        C  0.81459846  0.33383495  0.95125776    -0.22000
C255        C  0.79044924  0.11218619  0.97044005    -0.22000
C256        C  0.82768186  0.11518345  0.96567621    -0.22000
C257        C  0.68367439  0.23181377  0.93889138    -0.23100
C258        C  0.68595309  0.19436207  0.94087532    -0.23100
C259        C  0.90621981  0.24831980  0.90864290    -0.23100
C260        C  0.90826176  0.21087606  0.91041440    -0.23100
C261        C  0.72920848  0.28297986  0.94530637    -0.18400
C262        C  0.86136973  0.29212224  0.92937484    -0.18400
C263        C  0.86873653  0.16157452  0.93661981    -0.18400
C264        C  0.73698202  0.15129089  0.95399531    -0.18400
H265        H  0.76080328  0.35290282  0.96548655     0.14500
H266        H  0.83206810  0.35723330  0.95820042     0.14500
H267        H  0.77664577  0.09021477  0.98516553     0.14500
H268        H  0.84806349  0.09578977  0.97585888     0.14500
H269        H  0.65846041  0.24704065  0.93788795     0.12800
H270        H  0.66285184  0.17527723  0.94182827     0.12800
H271        H  0.92846328  0.26724347  0.90236296     0.12800
H272        H  0.93265740  0.19562436  0.90581856     0.12800
H273        H  0.79355347  0.25369589  0.91932204     0.26000
H274        H  0.79684694  0.18730478  0.92156939     0.26000
N275        N  0.29742134  0.03179055  0.74620833    -0.36700
N276        N  0.23671227  0.03786377  0.79175686    -0.57300
N277        N  0.18466304  0.04510071  0.72737892    -0.36700
N278        N  0.24657531  0.04299427  0.68130801    -0.57300
C279        C  0.31582038  0.03621596  0.77902026     0.26900
C280        C  0.32142347  0.03864548  0.71975222     0.26900
C281        C  0.16377466  0.05640680  0.75438695     0.26900
C282        C  0.16849938  0.05626779  0.69489513     0.26900
C283        C  0.26241993  0.02729365  0.81764428     0.35500
C284        C  0.20399286  0.03398100  0.80721046     0.35500
C285        C  0.27737985  0.03248429  0.66557507     0.35500
C286        C  0.21866304  0.03890714  0.65573030     0.35500
C287        C  0.35226524  0.04529293  0.77331021    -0.22000
C288        C  0.35583747  0.04673057  0.73585616    -0.22000
C289        C  0.13338445  0.07435655  0.73890810    -0.22000
C290        C  0.13620998  0.07398188  0.70129008    -0.22000
C291        C  0.24606881  0.01635807  0.84960118    -0.23100
C292        C  0.20903416  0.02033962  0.84296153    -0.23100
C293        C  0.26898846  0.02171814  0.62999023    -0.23100
C294        C  0.23184107  0.02554833  0.62384906    -0.23100
C295        C  0.30061794  0.03071135  0.81377307    -0.18400
C296        C  0.31345436  0.03510476  0.68167814    -0.18400
C297        C  0.18196188  0.04970824  0.65986159    -0.18400
C298        C  0.17093036  0.04924506  0.79237003    -0.18400
H299        H  0.37403938  0.05009418  0.79394698     0.14500
H300        H  0.38095517  0.05279133  0.72204744     0.14500
H301        H  0.11129661  0.08610814  0.75319700     0.14500
H302        H  0.11692254  0.08570317  0.68100235     0.14500
H303        H  0.25947957  0.00734138  0.87525201     0.12800
H304        H  0.18827651  0.01538105  0.86280445     0.12800
H305        H  0.28775222  0.01233911  0.61033196     0.12800
H306        H  0.21642738  0.01961164  0.59857209     0.12800
H307        H  0.27105765  0.02083870  0.74183867     0.26000
H308        H  0.20701828  0.02788170  0.73089240     0.26000
N309        N  0.02768648  0.75888265  0.23412413    -0.36700
N310        N  0.04707274  0.71356769  0.17457429    -0.57300
N311        N  0.04624754  0.77599732  0.12318926    -0.36700
N312        N  0.02744059  0.82046217  0.18277055    -0.57300
C313        C  0.04042613  0.72892919  0.25277151     0.26900
C314        C  0.03047863  0.78723602  0.25722651     0.26900
C315        C  0.06220112  0.75055414  0.10340647     0.26900
C316        C  0.05630916  0.80949577  0.10984237     0.26900
C317        C  0.04009683  0.68748756  0.20042450     0.35500
C318        C  0.04629957  0.69622768  0.14241601     0.35500
C319        C  0.01293238  0.83580186  0.21171333     0.35500
C320        C  0.02499531  0.84549227  0.15507451     0.35500
C321        C  0.04978097  0.73797122  0.28872145    -0.22000
C322        C  0.04402893  0.77496766  0.29136701    -0.22000
C323        C  0.08189695  0.76787039  0.07619019    -0.22000
C324        C  0.07849994  0.80526291  0.08051636    -0.22000
C325        C  0.03498670  0.65353352  0.18484640    -0.23100
C326        C  0.03835792  0.65909166  0.14805979    -0.23100
C327        C  0.99991329  0.87035479  0.20200562    -0.23100
C328        C  0.00772255  0.87658307  0.16607741    -0.23100
C329        C  0.04208467  0.69352911  0.23823856    -0.18400
C330        C  0.02093713  0.82374482  0.24798453    -0.18400
C331        C  0.04449562  0.84330753  0.12295481    -0.18400
C332        C  0.05772113  0.71228237  0.10905649    -0.18400
H333        H  0.06006505  0.72003906  0.31074983     0.14500
H334        H  0.04912135  0.79092126  0.31569710     0.14500
H335        H  0.09732808  0.75493692  0.05568896     0.14500
H336        H  0.09062184  0.82679747  0.06380507     0.14500
H337        H  0.03002201  0.62735830  0.19852291     0.12800
H338        H  0.03648453  0.63774090  0.12807941     0.12800
H339        H  0.98899692  0.89018936  0.21990401     0.12800
H340        H  0.00351372  0.90200008  0.15062587     0.12800
H341        H  0.01521093  0.75931835  0.20788769     0.26000
H342        H  0.02669324  0.77035729  0.14247635     0.26000
N343        N  0.30157918  0.78646378  0.44508572    -0.36700
N344        N  0.24659567  0.72865532  0.45493779    -0.57300
N345        N  0.30278267  0.67175045  0.44962370    -0.36700
N346        N  0.35804948  0.72959839  0.44248913    -0.57300
C347        C  0.27278036  0.80658431  0.45478121     0.26900
C348        C  0.33261688  0.80711539  0.45069679     0.26900
C349        C  0.27352825  0.65061520  0.45933591     0.26900
C350        C  0.33356843  0.65133117  0.45445638     0.26900
C351        C  0.22423509  0.75781452  0.44970865     0.35500
C352        C  0.22474861  0.69833190  0.45155862     0.35500
C353        C  0.37920801  0.76009816  0.43738258     0.35500
C354        C  0.38023426  0.70051696  0.43968395     0.35500
C355        C  0.28555375  0.84083045  0.46562855    -0.22000
C356        C  0.32326302  0.84113789  0.46320775    -0.22000
C357        C  0.28565552  0.61587110  0.46949080    -0.22000
C358        C  0.32338438  0.61630679  0.46643640    -0.22000
C359        C  0.18823256  0.74601079  0.44314061    -0.23100
C360        C  0.18853196  0.70853024  0.44411702    -0.23100
C361        C  0.41474423  0.75040506  0.43068526    -0.23100
C362        C  0.41556910  0.71304210  0.43261749    -0.23100
C363        C  0.23523211  0.79503636  0.45319570    -0.18400
C364        C  0.36911572  0.79636326  0.44459738    -0.18400
C365        C  0.37042667  0.66324736  0.44778548    -0.18400
C366        C  0.23606152  0.66148479  0.45763557    -0.18400
H367        H  0.26941988  0.86313761  0.47471774     0.14500
H368        H  0.34171518  0.86384928  0.47004612     0.14500
H369        H  0.26902014  0.59255077  0.47805211     0.14500
H370        H  0.34121762  0.59329997  0.47221369     0.14500
H371        H  0.16414744  0.76266523  0.43828992     0.12800
H372        H  0.16454316  0.69084986  0.43999559     0.12800
H373        H  0.43832008  0.76841823  0.42687498     0.12800
H374        H  0.44023023  0.69751769  0.43055747     0.12800
H375        H  0.29989328  0.76117938  0.43263651     0.26000
H376        H  0.30113691  0.69776858  0.43764669     0.26000
N377        N  0.82445401  0.53917178  0.25277300    -0.36700
N378        N  0.76896158  0.53655936  0.19177861    -0.57300
N379        N  0.70983746  0.54145795  0.24163529    -0.36700
N380        N  0.76563409  0.54064240  0.30324283    -0.57300
C381        C  0.84572751  0.53085376  0.22492172     0.26900
C382        C  0.84391826  0.53190727  0.28460721     0.26900
C383        C  0.69002346  0.53273248  0.21045566     0.26900
C384        C  0.68787727  0.53619525  0.27027497     0.26900
C385        C  0.79977047  0.54221145  0.17311712     0.35500
C386        C  0.74041035  0.54149732  0.16719241     0.35500
C387        C  0.79480495  0.54492582  0.32744043     0.35500
C388        C  0.73514865  0.54755638  0.32147557     0.35500
C389        C  0.87953457  0.51897291  0.23910984    -0.22000
C390        C  0.87845418  0.51974125  0.27674739    -0.22000
C391        C  0.65455629  0.52283322  0.21931909    -0.22000
C392        C  0.65315982  0.52510441  0.25699472    -0.22000
C393        C  0.79071506  0.55101094  0.13668912    -0.23100
C394        C  0.75321372  0.55028660  0.13288517    -0.23100
C395        C  0.78274713  0.55448313  0.36116299    -0.23100
C396        C  0.74517758  0.55639655  0.35736913    -0.23100
C397        C  0.83585951  0.53520689  0.18709764    -0.18400
C398        C  0.83191159  0.53759190  0.32039506    -0.18400
C399        C  0.69820562  0.54210281  0.30784351    -0.18400
C400        C  0.70303525  0.53474114  0.17429617    -0.18400
H401        H  0.90266595  0.51080363  0.22393309     0.14500
H402        H  0.90071643  0.51235583  0.29604504     0.14500
H403        H  0.63202254  0.51489897  0.20059948     0.14500
H404        H  0.62929959  0.51915764  0.27281071     0.14500
H405        H  0.80922617  0.55631821  0.11479552     0.12800
H406        H  0.73727804  0.55508600  0.10751748     0.12800
H407        H  0.79919818  0.55905409  0.38613444     0.12800
H408        H  0.72722338  0.56263585  0.37900359     0.12800
H409        H  0.79949024  0.55239354  0.24996163     0.26000
H410        H  0.73601568  0.55324646  0.24321417     0.26000
O411        O  0.00632016  0.65340960  0.47549087    -0.81000
O412        O  0.05876813  0.50826316  0.40762876    -0.65700
O413        O  0.00453723  0.59041158  0.43380314    -1.12300
C414        C  0.97435915  0.52524410  0.53945024     1.05900
O415        O  0.03138258  0.46415966  0.44087664    -0.78900
O416        O  0.96528573  0.49618902  0.44051511    -0.66500
Ni417      Ni  0.02695133  0.63812007  0.43096419     1.34900
C418        C  0.94429888  0.52359941  0.43952081     0.84600
O419        O  0.03569445  0.56887067  0.37183315    -0.79500
O420        O  0.04776014  0.62794928  0.38495792    -0.89700
C421        C  0.05266112  0.47486195  0.41601099     0.84200
O422        O  0.07127770  0.62518014  0.45781183    -0.67900
O423        O  0.97252567  0.49845583  0.51770309    -0.87200
C424        C  0.09244468  0.59941364  0.45066384     0.85000
C425        C  0.04395154  0.60179783  0.36248867     1.06600
H426        H  0.04900317  0.53442314  0.48541601     0.38400
O427        O  0.02615817  0.53298422  0.47088838    -1.09900
O428        O  0.94989448  0.54993478  0.46155925    -0.66500
Ni429      Ni  0.99525069  0.57268065  0.48158567     1.26300
O430        O  0.08079592  0.57088458  0.43397522    -0.66800
O431        O  0.98828662  0.55571240  0.52991056    -0.79000
C432        C  0.97383371  0.64515841  0.48417623     0.84400
O433        O  0.96413500  0.61221611  0.48960734    -0.66200
Ni434      Ni  0.00287070  0.48525369  0.47750986     1.27400
Ni435      Ni  0.03246101  0.54997469  0.42085966     1.26100
H436        H  0.98213337  0.59092418  0.41855510     0.38900
O437        O  0.07719139  0.00905099  0.51702004    -0.81000
O438        O  0.05411248  0.93311062  0.37934458    -0.65700
O439        O  0.10328496  0.97999825  0.45788648    -1.12300
C440        C  0.07994791  0.09154308  0.39591772     1.05900
O441        O  0.06474787  0.97338368  0.33438741    -0.78900
O442        O  0.12354019  0.01227918  0.36254817    -0.66500
Ni443      Ni  0.09391483  0.96174126  0.50569640     1.34900
C444        C  0.14588100  0.02543495  0.38680869     0.84600
O445        O  0.09812342  0.90921565  0.43415115    -0.79500
O446        O  0.11366318  0.91479794  0.49413442    -0.89700
C447        C  0.05490858  0.94169725  0.34588991     0.84200
O448        O  0.04292934  0.94490223  0.50081759    -0.67900
O449        O  0.08018035  0.07152060  0.36802839    -0.87200
C450        C  0.02066761  0.94407439  0.47293753     0.85000
C451        C  0.11583545  0.89863172  0.46362388     1.06600
H452        H  0.03751756  0.00837145  0.40767806     0.38400
O453        O  0.06338187  0.00553942  0.40431153    -1.09900
O454        O  0.13646132  0.03513460  0.41857695    -0.66500
Ni455      Ni  0.09041219  0.02917922  0.44441115     1.26300
O456        O  0.03205913  0.94890203  0.44097858    -0.66800
O457        O  0.07832551  0.07857109  0.42862092    -0.79000
C458        C  0.10150519  0.03429566  0.51965409     0.84400
O459        O  0.11393776  0.04777340  0.48972173    -0.66200
Ni460      Ni  0.07262457  0.02117332  0.35528306     1.27400
Ni461      Ni  0.07869033  0.95651055  0.41881184     1.26100
H462        H  0.12935213  0.97752469  0.45507848     0.38900
O463        O  0.92201419  0.52081062  0.03650025    -0.81000
O464        O  0.05698971  0.44504190  0.96770627    -0.65700
O465        O  0.97823263  0.47213443  0.02582644    -1.12300
C466        C  0.05926814  0.57382587  0.05069560     1.05900
O467        O  0.09421801  0.45630642  0.01561943    -0.78900
O468        O  0.08598526  0.49397776  0.07537912    -0.66500
Ni469      Ni  0.93155992  0.48191354  0.00307523     1.34900
C470        C  0.06027664  0.47638352  0.09061557     0.84600
O471        O  0.98924159  0.41421123  0.98150692    -0.79500
O472        O  0.93482179  0.44145618  0.97021053    -0.89700
C473        C  0.08861931  0.44357196  0.98395523     0.84200
O474        O  0.95110672  0.51594744  0.96744118    -0.67900
O475        O  0.08393219  0.55792547  0.03373903    -0.87200
C476        C  0.97389405  0.50695970  0.94402930     0.85000
C477        C  0.95576965  0.41385664  0.96886446     1.06600
H478        H  0.03477217  0.52222431  0.98953825     0.38400
O479        O  0.03811828  0.50428919  0.00926471    -1.09900
O480        O  0.02695932  0.48124679  0.08040974    -0.66500
Ni481      Ni  0.00400313  0.51413705  0.04453791     1.26300
O482        O  0.99699119  0.48178741  0.95073377    -0.66800
O483        O  0.03019013  0.55747407  0.06163607    -0.79000
C484        C  0.93419596  0.52408415  0.06966707     0.84400
O485        O  0.96799394  0.52146841  0.07879060    -0.66200
Ni486      Ni  0.08856136  0.50695419  0.02447330     1.27400
Ni487      Ni  0.01584139  0.45834102  0.99512307     1.26100
H488        H  0.97518186  0.45351783  0.04481110     0.38900
N489        N  0.28275229  0.04287939  0.23574850    -0.36700
N490        N  0.33939664  0.04139337  0.18371033    -0.57300
N491        N  0.39747590  0.04201312  0.24248070    -0.36700
N492        N  0.33909214  0.04193041  0.29432451    -0.57300
C493        C  0.26253803  0.03383865  0.20515965     0.26900
C494        C  0.26229699  0.03436295  0.26475375     0.26900
C495        C  0.41642808  0.03158155  0.21360086     0.26900
C496        C  0.41617352  0.03078266  0.27369505     0.26900
C497        C  0.31001467  0.04787519  0.16049861     0.35500
C498        C  0.36947441  0.04773892  0.16416619     0.35500
C499        C  0.30942178  0.04891755  0.31376444     0.35500
C500        C  0.36906032  0.04796548  0.31682098     0.35500
C501        C  0.22864414  0.01966540  0.21475387    -0.22000
C502        C  0.22849980  0.01993111  0.25246100    -0.22000
C503        C  0.44831249  0.01450618  0.22656114    -0.22000
C504        C  0.44799271  0.01369213  0.26448486    -0.22000
C505        C  0.32136571  0.05856109  0.12620144    -0.23100
C506        C  0.35898408  0.05855893  0.12848629    -0.23100
C507        C  0.32046302  0.05979476  0.34863050    -0.23100
C508        C  0.35819270  0.05943034  0.35052328    -0.23100
C509        C  0.27316180  0.04074591  0.16893796    -0.18400
C510        C  0.27260803  0.04176985  0.30167563    -0.18400
C511        C  0.40501793  0.03625379  0.30994983    -0.18400
C512        C  0.40556282  0.03783845  0.17607346    -0.18400
H513        H  0.20623813  0.01047864  0.19648772     0.14500
H514        H  0.20590513  0.01099380  0.26890306     0.14500
H515        H  0.46931460  0.00332813  0.21038609     0.14500
H516        H  0.46877282  0.00182026  0.28309502     0.14500
H517        H  0.30434769  0.06455532  0.10176298     0.12800
H518        H  0.37649073  0.06436975  0.10589178     0.12800
H519        H  0.30312625  0.06614081  0.37074118     0.12800
H520        H  0.37565010  0.06510793  0.37460930     0.12800
H521        H  0.30717885  0.05819644  0.23659033     0.26000
H522        H  0.37420011  0.05815620  0.24087686     0.26000
O523        O  0.13034559  0.04427234  0.95337525    -0.81000
O524        O  0.07324356  0.08410063  0.10572109    -0.65700
O525        O  0.07806674  0.05147149  0.00733597    -1.12300
C526        C  0.10519741  0.17753422  0.98287832     1.05900
O527        O  0.03951751  0.12902229  0.08382268    -0.78900
O528        O  0.02533017  0.15400001  0.01523601    -0.66500
Ni529      Ni  0.11282808  0.01604648  0.99525364     1.34900
C530        C  0.01361023  0.12969201  0.99312180     0.84600
O531        O  0.06388602  0.01661229  0.07338288    -0.79500
O532        O  0.09601360  0.98427037  0.03393459    -0.89700
C533        C  0.05761903  0.11433790  0.11056500     0.84200
O534        O  0.15432549  0.03229431  0.02606606    -0.67900
O535        O  0.09539257  0.18466224  0.01499830    -0.87200
C536        C  0.15488770  0.04574850  0.05787337     0.85000
C537        C  0.07555426  0.98647092  0.06118680     1.06600
H538        H  0.11618685  0.11735453  0.04225047     0.38400
O539        O  0.09038120  0.11308185  0.03644987    -1.09900
O540        O  0.03427702  0.10538708  0.98143578    -0.66500
Ni541      Ni  0.08668508  0.09907242  0.98703811     1.26300
O542        O  0.12641959  0.05748661  0.07184057    -0.66800
O543        O  0.09730516  0.14732884  0.96729056    -0.79000
C544        C  0.11066800  0.06238493  0.92958052     0.84400
O545        O  0.08454281  0.08175665  0.93883138    -0.66200
Ni546      Ni  0.06690449  0.15655327  0.04910686     1.27400
Ni547      Ni  0.07614457  0.06581880  0.05687395     1.26100
H548        H  0.05398098  0.04247480  0.99916464     0.38900
N549        N  0.11235887  0.29437377  0.20864356    -0.36700
N550        N  0.11140085  0.35162756  0.26287292    -0.57300
N551        N  0.12110769  0.29741206  0.32306266    -0.36700
N552        N  0.11316697  0.21178778  0.26969161    -0.57300
C553        C  0.10158311  0.32276239  0.18639600     0.26900
C554        C  0.10732617  0.26303559  0.18984040     0.26900
C555        C  0.11227175  0.32677450  0.34218814     0.26900
C556        C  0.11561208  0.26699363  0.34433612     0.26900
C557        C  0.10979522  0.37295436  0.23201157     0.35500
C558        C  0.11542017  0.37439518  0.29145596     0.35500
C559        C  0.13110232  0.22301231  0.23976731     0.35500
C560        C  0.13389771  0.22406862  0.29868380     0.35500
C561        C  0.09035737  0.30927627  0.15236822    -0.22000
C562        C  0.09365472  0.27151731  0.15466061    -0.22000
C563        C  0.10222263  0.31492343  0.37685473    -0.22000
C564        C  0.10383593  0.27706201  0.37797605    -0.22000
C565        C  0.11321876  0.40959582  0.24107172    -0.23100
C566        C  0.11672108  0.41050775  0.27858135    -0.23100
C567        C  0.16392576  0.24064251  0.24974322    -0.23100
C568        C  0.16585370  0.24104548  0.28723715    -0.23100
C569        C  0.10173907  0.36032766  0.19603291    -0.18400
C570        C  0.11314839  0.22729829  0.20522375    -0.18400
C571        C  0.11879750  0.23068514  0.33234174    -0.18400
C572        C  0.11193726  0.36366681  0.32874833    -0.18400
H573        H  0.08032241  0.32493310  0.12851146     0.14500
H574        H  0.08675464  0.25258713  0.13296970     0.14500
H575        H  0.09355432  0.33168503  0.39872471     0.14500
H576        H  0.09671463  0.25906531  0.40066592     0.14500
H577        H  0.11215136  0.43332391  0.22265892     0.12800
H578        H  0.11855245  0.43508087  0.29457145     0.12800
H579        H  0.18242487  0.25496172  0.23170658     0.12800
H580        H  0.18606193  0.25596589  0.30404138     0.12800
H581        H  0.12226528  0.29579567  0.23559397     0.26000
H582        H  0.12982706  0.29797825  0.29651160     0.26000
N583        N  0.28844912  0.27110293  0.92153316    -0.36700
N584        N  0.23475239  0.32885701  0.91498848    -0.57300
N585        N  0.28779950  0.38419005  0.93763374    -0.36700
N586        N  0.34247436  0.32638456  0.94493165    -0.57300
C587        C  0.25696097  0.25093919  0.92410647     0.26900
C588        C  0.31650134  0.24945798  0.93343470     0.26900
C589        C  0.25596557  0.40090795  0.94383800     0.26900
C590        C  0.31444683  0.40038619  0.95891594     0.26900
C591        C  0.21343525  0.29986272  0.90500056     0.35500
C592        C  0.21440718  0.35893821  0.90851213     0.35500
C593        C  0.36522651  0.29805775  0.94090263     0.35500
C594        C  0.36429998  0.35632240  0.95081944     0.35500
C595        C  0.26532728  0.21548518  0.93572251    -0.22000
C596        C  0.30295232  0.21436106  0.94103300    -0.22000
C597        C  0.26270976  0.42861463  0.96873752    -0.22000
C598        C  0.29982464  0.42849936  0.97799347    -0.22000
C599        C  0.17971970  0.31162672  0.89058405    -0.23100
C600        C  0.18052542  0.34909627  0.89223804    -0.23100
C601        C  0.40157156  0.31008653  0.94458067    -0.23100
C602        C  0.40098605  0.34698161  0.95044001    -0.23100
C603        C  0.22077023  0.26384842  0.91735336    -0.18400
C604        C  0.35381845  0.26085446  0.93825602    -0.18400
C605        C  0.35178002  0.39102380  0.96058789    -0.18400
C606        C  0.22105856  0.39150772  0.92772307    -0.18400
H607        H  0.24623806  0.19284170  0.94017340     0.14500
H608        H  0.31828046  0.19061969  0.95062229     0.14500
H609        H  0.24295126  0.44692806  0.97921189     0.14500
H610        H  0.31429276  0.44650087  0.99712537     0.14500
H611        H  0.15603421  0.29502564  0.88215692     0.12800
H612        H  0.15731951  0.36659605  0.88596166     0.12800
H613        H  0.42608037  0.29389693  0.94410164     0.12800
H614        H  0.42492687  0.36460427  0.95520913     0.12800
H615        H  0.29108023  0.29776133  0.91112858     0.26000
H616        H  0.29177889  0.36461405  0.91806155     0.26000
C617        C  0.16228195  0.22585253  0.91072440    -0.09300
C618        C  0.18979014  0.24251718  0.93322685     0.06900
C619        C  0.18663333  0.24093833  0.97153185    -0.03000
C620        C  0.15741152  0.22165134  0.98673764    -0.07500
C621        C  0.13051427  0.20370851  0.96455681     0.06000
C622        C  0.13250291  0.20692915  0.92603932    -0.02500
Br623      Br  0.09487547  0.18721702  0.89313831    -0.02200
H624        H  0.16391006  0.22770960  0.88122621     0.09900
H625        H  0.15667369  0.21941902  0.01630977     0.08000
Br626      Br  0.22184527  0.26435402  0.00464521    -0.02600
C627        C  0.10525148  0.13669205  0.15581820    -0.09300
C628        C  0.06838777  0.13686510  0.14268534     0.06900
C629        C  0.04517384  0.16383655  0.15526017    -0.03000
C630        C  0.05982279  0.19222933  0.17688205    -0.07500
C631        C  0.09751877  0.19416453  0.18675362     0.06000
C632        C  0.11996455  0.16500281  0.17750275    -0.02500
Br633      Br  0.17169688  0.16407383  0.19026249    -0.02200
H634        H  0.12348549  0.11598173  0.14693205     0.09900
H635        H  0.04188039  0.21347271  0.18522547     0.08000
Br636      Br  0.99323652  0.16282988  0.14445915    -0.02600
C637        C  0.22807118  0.07527443  0.12894176    -0.09300
C638        C  0.24437617  0.04175279  0.13859004     0.06900
C639        C  0.23394249  0.01037029  0.11865392    -0.03000
C640        C  0.20647299  0.01266468  0.09039140    -0.07500
C641        C  0.18911150  0.04602798  0.08155818     0.06000
C642        C  0.20076324  0.07765442  0.10075950    -0.02500
Br643      Br  0.18107345  0.12509351  0.08915326    -0.02200
H644        H  0.23656926  0.09971547  0.14357575     0.09900
H645        H  0.19743204  0.98796757  0.07648890     0.08000
Br646      Br  0.25554689  0.96373784  0.13017688    -0.02600
C647        C  0.13215151  0.44287522  0.93407774    -0.09300
C648        C  0.11995330  0.42770235  0.96714907     0.06900
C649        C  0.14194937  0.40248313  0.98749090    -0.03000
C650        C  0.17565855  0.39289402  0.97481528    -0.07500
C651        C  0.18815111  0.40809266  0.94200220     0.06000
C652        C  0.16624942  0.43325210  0.92140989    -0.02500
Br653      Br  0.18189093  0.45471044  0.87621583    -0.02200
H654        H  0.11581125  0.46313336  0.91885780     0.09900
H655        H  0.19194158  0.37266359  0.99017235     0.08000
Br656      Br  0.12679288  0.37967001  0.03245165    -0.02600
C657        C  0.05442627  0.40027497  0.16476602    -0.09300
C658        C  0.09088071  0.38852009  0.16748155     0.06900
C659        C  0.11705175  0.40634954  0.14596116    -0.03000
C660        C  0.10666680  0.43558891  0.12236633    -0.07500
C661        C  0.07004383  0.44766963  0.11924486     0.06000
C662        C  0.04369460  0.42930911  0.14091980    -0.02500
Br663      Br  0.99278613  0.44230574  0.14049043    -0.02200
H664        H  0.03425165  0.38700077  0.18176000     0.09900
H665        H  0.12744442  0.44840477  0.10580276     0.08000
Br666      Br  0.16737994  0.39172965  0.14822384    -0.02600
C667        C  0.11979242  0.14719215  0.39638959    -0.09300
C668        C  0.08497472  0.13130606  0.38843502     0.06900
C669        C  0.05999619  0.15032724  0.36447408    -0.03000
C670        C  0.07039955  0.18395606  0.34806665    -0.07500
C671        C  0.10595563  0.19865913  0.35449269     0.06000
C672        C  0.13045883  0.18038368  0.37938673    -0.02500
Br673      Br  0.17997708  0.19816093  0.38810372    -0.02200
H674        H  0.13984984  0.13225366  0.41346362     0.09900
H675        H  0.05141682  0.19764586  0.32875964     0.08000
Br676      Br  0.01240356  0.12981842  0.35130620    -0.02600
C677        C  0.23808302  0.00758978  0.34958646    -0.09300
C678        C  0.24361917  0.04013815  0.32905709     0.06900
C679        C  0.21980812  0.06957975  0.33278104    -0.03000
C680        C  0.19021886  0.06564425  0.35576033    -0.07500
C681        C  0.18343857  0.03237507  0.37475308     0.06000
C682        C  0.20793469  0.00339311  0.37186461    -0.02500
Br683      Br  0.19926477  0.95667901  0.39534691    -0.02200
H684        H  0.25611361  0.98471036  0.34668961     0.09900
H685        H  0.17078619  0.08768296  0.35658013     0.08000
Br686      Br  0.22505644  0.11451461  0.30483306    -0.02600
C687        C  0.06054743  0.39475028  0.35469710    -0.09300
C688        C  0.09861526  0.39181174  0.35300981     0.06900
C689        C  0.12218371  0.41668394  0.37201239    -0.03000
C690        C  0.10711646  0.44422201  0.39242488    -0.07500
C691        C  0.06882503  0.44663781  0.39436381     0.06000
C692        C  0.04558558  0.42177635  0.37511652    -0.02500
Br693      Br  0.99306508  0.42500297  0.37366739    -0.02200
H694        H  0.04234727  0.37614567  0.33947139     0.09900
H695        H  0.12516756  0.46342270  0.40702194     0.08000
Br696      Br  0.17457017  0.41399115  0.37049453    -0.02600
C697        C  0.90212533  0.56110207  0.39800824    -0.09300
C698        C  0.91319708  0.52613355  0.41113436     0.06900
C699        C  0.89576980  0.49498762  0.39503076    -0.03000
C700        C  0.86929096  0.49929242  0.36599093    -0.07500
C701        C  0.85938455  0.53420733  0.35225423     0.06000
C702        C  0.87580153  0.56525550  0.36888863    -0.02500
Br703      Br  0.86359177  0.61391897  0.35211120    -0.02200
H704        H  0.91470532  0.58553625  0.40974591     0.09900
H705        H  0.85637428  0.47517608  0.35389571     0.08000
Br706      Br  0.90506206  0.44585516  0.41253440    -0.02600
C707        C  0.88822833  0.56004515  0.15185529    -0.09300
C708        C  0.86404060  0.53070998  0.15961070     0.06900
C709        C  0.86260843  0.49994046  0.13701007    -0.03000
C710        C  0.88453193  0.49926610  0.10676807    -0.07500
C711        C  0.90847003  0.52867001  0.09881703     0.06000
C712        C  0.91058171  0.55909292  0.12176748    -0.02500
Br713      Br  0.94200380  0.60061851  0.11167937    -0.02200
H714        H  0.88880973  0.58417633  0.16853133     0.09900
H715        H  0.88348006  0.47530263  0.08980865     0.08000
Br716      Br  0.83055232  0.45855917  0.14607730    -0.02600
C717        C  0.18311355  0.63612539  0.49197963    -0.09300
C718        C  0.20563926  0.63356872  0.46193980     0.06900
C719        C  0.19280486  0.61249269  0.43202040    -0.03000
C720        C  0.15672406  0.59808673  0.43063989    -0.07500
C721        C  0.13262861  0.60486076  0.45851095     0.06000
C722        C  0.14677006  0.62241149  0.49027908    -0.02500
Br723      Br  0.11689444  0.63030193  0.53107484    -0.02200
H724        H  0.19255768  0.65216204  0.51525305     0.09900
H725        H  0.14647959  0.58453021  0.40606324     0.08000
Br726      Br  0.22169304  0.60717244  0.39010383    -0.02600
C727        C  0.16271706  0.86710420  0.42845405    -0.09300
C728        C  0.14360005  0.86899412  0.46102063     0.06900
C729        C  0.15565387  0.84654671  0.49126068    -0.03000
C730        C  0.18593067  0.82351315  0.48854473    -0.07500
C731        C  0.20543795  0.82259982  0.45630768     0.06000
C732        C  0.19345869  0.84474779  0.42611910    -0.02500
Br733      Br  0.21837256  0.84527077  0.38106377    -0.02200
H734        H  0.15460054  0.88421289  0.40490144     0.09900
H735        H  0.19417654  0.80590409  0.51169560     0.08000
Br736      Br  0.13106046  0.84484671  0.53650446    -0.02600
C737        C  0.03465419  0.89144589  0.07400289    -0.09300
C738        C  0.05510921  0.87870940  0.10503516     0.06900
C739        C  0.08116669  0.90247297  0.12253402    -0.03000
C740        C  0.08606988  0.93842529  0.10916237    -0.07500
C741        C  0.06529543  0.95123837  0.07844602     0.06000
C742        C  0.03980746  0.92736571  0.06049201    -0.02500
Br743      Br  0.01137018  0.94292309  0.01751466    -0.02200
H744        H  0.01405432  0.87371154  0.06085153     0.09900
H745        H  0.10673315  0.95615735  0.12225173     0.08000
Br746      Br  0.11047167  0.88705332  0.16500869    -0.02600
C747        C  0.03524340  0.63682540  0.04674271    -0.09300
C748        C  0.06402078  0.61327028  0.05747937     0.06900
C749        C  0.09575140  0.62762666  0.07593438    -0.03000
C750        C  0.09663527  0.66422192  0.08659531    -0.07500
C751        C  0.06566502  0.68627061  0.08020952     0.06000
C752        C  0.03607084  0.67327823  0.05766053    -0.02500
Br753      Br  0.99338328  0.70233998  0.04711516    -0.02200
H754        H  0.01109587  0.62625525  0.03169906     0.09900
H755        H  0.11919077  0.67372981  0.10456443     0.08000
Br756      Br  0.13534467  0.59686429  0.09327274    -0.02600
C757        C  0.01431530  0.64064420  0.27171829    -0.09300
C758        C  0.04579038  0.66158551  0.26389863     0.06900
C759        C  0.07932754  0.65414573  0.28315638    -0.03000
C760        C  0.07967738  0.63001803  0.31347857    -0.07500
C761        C  0.04717977  0.61218028  0.32385580     0.06000
C762        C  0.01495067  0.61553898  0.30122829    -0.02500
Br763      Br  0.96970977  0.59091795  0.31286757    -0.02200
H764        H  0.98864713  0.64557038  0.25630546     0.09900
H765        H  0.10459318  0.62754309  0.33074429     0.08000
Br766      Br  0.12422816  0.67920477  0.27136488    -0.02600
C767        C  0.05919589  0.87650016  0.26816084    -0.09300
C768        C  0.02923783  0.85283122  0.27472821     0.06900
C769        C  0.00699280  0.85914060  0.30412966    -0.03000
C770        C  0.01543757  0.88871155  0.32683198    -0.07500
C771        C  0.04509540  0.91284025  0.31975405     0.06000
C772        C  0.06685672  0.90670616  0.28983309    -0.02500
Br773      Br  0.10833812  0.93735138  0.27788764    -0.02200
H774        H  0.07632104  0.87174739  0.24539532     0.09900
H775        H  0.99857697  0.89314676  0.34986932     0.08000
Br776      Br  0.96448503  0.82903868  0.31337950    -0.02600
C777        C  0.15917122  0.08840173  0.84398909    -0.09300
C778        C  0.14544184  0.06136131  0.81992938     0.06900
C779        C  0.11580859  0.03863496  0.83033960    -0.03000
C780        C  0.10335188  0.04035490  0.86592450    -0.07500
C781        C  0.12062689  0.06411904  0.89126621     0.06000
C782        C  0.14785688  0.08906213  0.87984803    -0.02500
Br783      Br  0.17359134  0.12114506  0.91355088    -0.02200
H784        H  0.18231422  0.10567562  0.83644813     0.09900
H785        H  0.08169642  0.02167427  0.87445129     0.08000
Br786      Br  0.09461599  0.00227787  0.79836810    -0.02600
C787        C  0.14559753  0.07026022  0.56147592    -0.09300
C788        C  0.11736035  0.04352882  0.55722635     0.06900
C789        C  0.10658512  0.02380831  0.58938494    -0.03000
C790        C  0.12672836  0.02775874  0.62276820    -0.07500
C791        C  0.15667631  0.05222351  0.62610430     0.06000
C792        C  0.16448764  0.07527798  0.59563615    -0.02500
Br793      Br  0.20091995  0.11386850  0.59967860    -0.02200
H794        H  0.15356360  0.08686433  0.53806836     0.09900
H795        H  0.11968243  0.01056997  0.64613034     0.08000
Br796      Br  0.06522377  0.99011897  0.59110967    -0.02600
C797        C  0.91181042  0.14961921  0.98888842    -0.09300
C798        C  0.90203611  0.14294228  0.95222845     0.06900
C799        C  0.92737430  0.12618429  0.93043310    -0.03000
C800        C  0.96336964  0.12005693  0.94457792    -0.07500
C801        C  0.97428848  0.13046857  0.98039162     0.06000
C802        C  0.94731042  0.14348822  0.00310088    -0.02500
Br803      Br  0.95650974  0.15438972  0.05368625    -0.02200
H804        H  0.89225497  0.16207025  0.00597011     0.09900
H805        H  0.98328480  0.10915975  0.92690557     0.08000
Br806      Br  0.91464488  0.11466269  0.88051525    -0.02600
C807        C  0.89141347  0.35209821  0.91288659    -0.09300
C808        C  0.89085038  0.32059863  0.93560457     0.06900
C809        C  0.91606635  0.31810741  0.96612802    -0.03000
C810        C  0.94021180  0.34751594  0.97424452    -0.07500
C811        C  0.93874824  0.38020840  0.95319052     0.06000
C812        C  0.91457131  0.38196297  0.92173974    -0.02500
Br813      Br  0.91031612  0.42515781  0.89096684    -0.02200
H814        H  0.87220903  0.35425758  0.88937632     0.09900
H815        H  0.95786003  0.34600140  0.99894800     0.08000
Br816      Br  0.91558490  0.27699198  0.00004456    -0.02600
C817        C  0.45017581  0.05998571  0.13068003    -0.09300
C818        C  0.43070972  0.03041811  0.14623179     0.06900
C819        C  0.42566558  0.99806299  0.12618024    -0.03000
C820        C  0.43684602  0.99685740  0.09005430    -0.07500
C821        C  0.45273170  0.02784425  0.07290708     0.06000
C822        C  0.46107952  0.05907095  0.09441059    -0.02500
Br823      Br  0.48631292  0.10195900  0.07612052    -0.02200
H824        H  0.45396410  0.08513614  0.14565176     0.09900
H825        H  0.43061218  0.97244189  0.07451828     0.08000
Br826      Br  0.39897303  0.95664191  0.14553656    -0.02600
C827        C  0.36865707  0.00012925  0.89067725    -0.09300
C828        C  0.37174570  0.03141868  0.91256333     0.06900
C829        C  0.34939733  0.06172835  0.90260331    -0.03000
C830        C  0.32629921  0.06083214  0.87066896    -0.07500
C831        C  0.32515212  0.03037562  0.84783828     0.06000
C832        C  0.34592449  0.99953652  0.85861178    -0.02500
Br833      Br  0.34460207  0.95623632  0.82991450    -0.02200
H834        H  0.38562800  0.97660521  0.89729198     0.09900
H835        H  0.30951997  0.08430601  0.86324572     0.08000
Br836      Br  0.34890723  0.10499442  0.93142677    -0.02600
C837        C  0.43512204  0.19853310  0.92898676    -0.09300
C838        C  0.43707276  0.18098579  0.96367697     0.06900
C839        C  0.41133845  0.18953344  0.98957645    -0.03000
C840        C  0.38464506  0.21562967  0.98080396    -0.07500
C841        C  0.38208475  0.23252677  0.94592868     0.06000
C842        C  0.40747171  0.22374706  0.91980729    -0.02500
Br843      Br  0.40476679  0.24507850  0.87126557    -0.02200
H844        H  0.45420279  0.19154544  0.90854357     0.09900
H845        H  0.36547365  0.22256541  0.00116869     0.08000
Br846      Br  0.41170365  0.16683547  0.03757227    -0.02600
C847        C  0.69602108  0.09570226  0.94671610    -0.09300
C848        C  0.71051143  0.12368572  0.96895791     0.06900
C849        C  0.69493726  0.12929173  0.00277934    -0.03000
C850        C  0.66153296  0.11194550  0.01070735    -0.07500
C851        C  0.64382679  0.08776382  0.98583308     0.06000
C852        C  0.66345183  0.07687940  0.95544104    -0.02500
Br853      Br  0.64609307  0.03928655  0.92264354    -0.02200
H854        H  0.70866593  0.09019058  0.92127112     0.09900
H855        H  0.64802065  0.11961262  0.03504034     0.08000
Br856      Br  0.71678255  0.16322512  0.03709878    -0.02600
C857        C  0.56892490  0.16837634  0.83064521    -0.09300
C858        C  0.53358019  0.17808367  0.81743361     0.06900
C859        C  0.50289310  0.15838232  0.83026058    -0.03000
C860        C  0.50779890  0.13044999  0.85700722    -0.07500
C861        C  0.54302279  0.12224018  0.87189498     0.06000
C862        C  0.57375101  0.14111242  0.85803109    -0.02500
Br863      Br  0.62262216  0.13227443  0.87762948    -0.02200
H864        H  0.59273093  0.18295095  0.82049916     0.09900
H865        H  0.48380541  0.11730464  0.86841438     0.08000
Br866      Br  0.45375577  0.17034251  0.81354842    -0.02600
C867        C  0.41127187  0.99708331  0.36594588    -0.09300
C868        C  0.42788788  0.02320526  0.34303745     0.06900
C869        C  0.46129261  0.04007439  0.35579243    -0.03000
C870        C  0.47660280  0.03113188  0.39122718    -0.07500
C871        C  0.45754568  0.00762378  0.41527816     0.06000
C872        C  0.42397106  0.99126065  0.40207430    -0.02500
Br873      Br  0.39106212  0.96312654  0.43189204    -0.02200
H874        H  0.38555998  0.98398226  0.35681338     0.09900
H875        H  0.50199412  0.04444858  0.40080933     0.08000
Br876      Br  0.48498291  0.07765753  0.32738065    -0.02600
C877        C  0.41353687  0.84555711  0.42365330    -0.09300
C878        C  0.40000301  0.82307941  0.45195040     0.06900
C879        C  0.41777669  0.82399108  0.48697412    -0.03000
C880        C  0.44701958  0.84860991  0.49392096    -0.07500
C881        C  0.45839125  0.87359893  0.46673551     0.06000
C882        C  0.44243832  0.87086406  0.43092657    -0.02500
Br883      Br  0.45789218  0.90296252  0.39200295    -0.02200
H884        H  0.40094801  0.84413644  0.39625329     0.09900
H885        H  0.45801784  0.85114262  0.52185770     0.08000
Br886      Br  0.40066818  0.79439819  0.52708485    -0.02600
C887        C  0.37945772  0.05325143  0.60545564    -0.09300
C888        C  0.39718534  0.01948590  0.60523086     0.06900
C889        C  0.38859793  0.99201941  0.63143110    -0.03000
C890        C  0.36240230  0.99820774  0.65702181    -0.07500
C891        C  0.34442645  0.03168525  0.65716137     0.06000
C892        C  0.35336149  0.05958886  0.63145936    -0.02500
Br893      Br  0.33081640  0.10663472  0.63146677    -0.02200
H894        H  0.38622014  0.07477003  0.58579420     0.09900
H895        H  0.35523544  0.97643119  0.67628170     0.08000
Br896      Br  0.41030844  0.94465563  0.63206203    -0.02600
C897        C  0.57540290  0.12857000  0.61426362    -0.09300
C898        C  0.54358199  0.11100087  0.59920017     0.06900
C899        C  0.51018171  0.13062965  0.59753114    -0.03000
C900        C  0.50880501  0.16537378  0.61276725    -0.07500
C901        C  0.53987063  0.18141898  0.63034314     0.06000
C902        C  0.57361403  0.16318684  0.63013493    -0.02500
Br903      Br  0.61710335  0.18338918  0.65416268    -0.02200
H904        H  0.60138068  0.11458051  0.61546561     0.09900
H905        H  0.48260883  0.17886149  0.61323387     0.08000
Br906      Br  0.46474469  0.11204432  0.57550098    -0.02600
C907        C  0.41153838  0.62940657  0.49267978    -0.09300
C908        C  0.40193454  0.63760427  0.45591047     0.06900
C909        C  0.42706417  0.62857298  0.42927909    -0.03000
C910        C  0.46328547  0.61828095  0.44015807    -0.07500
C911        C  0.47422148  0.61493381  0.47749503     0.06000
C912        C  0.44673411  0.61734150  0.50340889    -0.02500
Br913      Br  0.45548929  0.60514177  0.55429950    -0.02200
H914        H  0.39233739  0.63474282  0.51353904     0.09900
H915        H  0.48337595  0.61545144  0.41958985     0.08000
Br916      Br  0.41431351  0.63464506  0.37804051    -0.02600
C917        C  0.63301574  0.56977411  0.37994200    -0.09300
C918        C  0.63190002  0.53773461  0.40233666     0.06900
C919        C  0.64774397  0.50563091  0.38955312    -0.03000
C920        C  0.66646345  0.50688698  0.35686579    -0.07500
C921        C  0.66973276  0.53955719  0.33602941     0.06000
C922        C  0.65179390  0.57088477  0.34724038    -0.02500
Br923      Br  0.65487134  0.61652661  0.32025665    -0.02200
H924        H  0.62085121  0.59469657  0.38877162     0.09900
H925        H  0.68015406  0.48260060  0.34853315     0.08000
Br926      Br  0.64484125  0.45905249  0.41508005    -0.02600
C927        C  0.52674091  0.41716299  0.57895332    -0.09300
C928        C  0.54977360  0.44402091  0.59555555     0.06900
C929        C  0.56421025  0.43747101  0.63143049    -0.03000
C930        C  0.55632243  0.40426683  0.64966185    -0.07500
C931        C  0.53275814  0.37743486  0.63354814     0.06000
C932        C  0.51753146  0.38442405  0.59783943    -0.02500
Br933      Br  0.48317988  0.35112724  0.57410845    -0.02200
H934        H  0.51568866  0.42181432  0.55120196     0.09900
H935        H  0.56824325  0.39954452  0.67708068     0.08000
Br936      Br  0.59612298  0.47230818  0.65623325    -0.02600
C937        C  0.67032376  0.34652717  0.99743561    -0.09300
C938        C  0.64622246  0.35978372  0.96934295     0.06900
C939        C  0.64834013  0.34647611  0.93366380    -0.03000
C940        C  0.67533747  0.32135194  0.92632280    -0.07500
C941        C  0.69988895  0.30856870  0.95428886     0.06000
C942        C  0.69659038  0.32058362  0.99031927    -0.02500
Br943      Br  0.72790012  0.30299261  0.03046081    -0.02200
H944        H  0.66889936  0.35664571  0.02492277     0.09900
H945        H  0.67754238  0.31207618  0.89861971     0.08000
Br946      Br  0.61699004  0.36381345  0.89346761    -0.02600
C947        C  0.49388490  0.39478795  0.87077852    -0.09300
C948        C  0.52373042  0.41995472  0.87359586     0.06900
C949        C  0.54841036  0.42209969  0.84496095    -0.03000
C950        C  0.54483811  0.39708700  0.81630484    -0.07500
C951        C  0.51669958  0.37005858  0.81538084     0.06000
C952        C  0.49013253  0.37025152  0.84198407    -0.02500
Br953      Br  0.44886842  0.33670375  0.84056259    -0.02200
H954        H  0.47424087  0.39299857  0.89212546     0.09900
H955        H  0.56506640  0.39765532  0.79552628     0.08000
Br956      Br  0.58965789  0.45572852  0.84549995    -0.02600
C957        C  0.66314577  0.49086101  0.08767985    -0.09300
C958        C  0.64910737  0.52137896  0.06744631     0.06900
C959        C  0.64739138  0.55512671  0.08603314    -0.03000
C960        C  0.66168225  0.55801018  0.12235732    -0.07500
C961        C  0.67777189  0.52805179  0.14132937     0.06000
C962        C  0.67741143  0.49402290  0.12391868    -0.02500
Br963      Br  0.69886842  0.45166421  0.14788424    -0.02200
H964        H  0.66450832  0.46452808  0.07486644     0.09900
H965        H  0.66232723  0.58449110  0.13513834     0.08000
Br966      Br  0.62744290  0.59930208  0.06398917    -0.02600
C967        C  0.43167556  0.43567242  0.01297869    -0.09300
C968        C  0.44619933  0.45822124  0.98511366     0.06900
C969        C  0.42420724  0.46472371  0.95260476    -0.03000
C970        C  0.39090791  0.44542084  0.94707504    -0.07500
C971        C  0.37959351  0.41892062  0.97274075     0.06000
C972        C  0.39927380  0.41523611  0.00661511    -0.02500
Br973      Br  0.38622081  0.37852163  0.04249223    -0.02200
H974        H  0.44781531  0.43040128  0.03818613     0.09900
H975        H  0.37572370  0.44827334  0.92094429     0.08000
Br976      Br  0.44023233  0.49381007  0.91161615    -0.02600
C977        C  0.91594827  0.93539162  0.45188611    -0.09300
C978        C  0.90479238  0.91152279  0.48004400     0.06900
C979        C  0.93089840  0.90324486  0.50898161    -0.03000
C980        C  0.96784200  0.91556354  0.50735787    -0.07500
C981        C  0.97998986  0.93640635  0.47709111     0.06000
C982        C  0.95270448  0.94790575  0.45021279    -0.02500
Br983      Br  0.96308540  0.98034585  0.40972037    -0.02200
H984        H  0.89654827  0.94212805  0.42942683     0.09900
H985        H  0.98751779  0.90692367  0.52887474     0.08000
Br986      Br  0.91802622  0.87158582  0.54931799    -0.02600
C987        C  0.68656090  0.89855104  0.50140368    -0.09300
C988        C  0.70436547  0.91132032  0.47016435     0.06900
C989        C  0.68627055  0.93772609  0.44708914    -0.03000
C990        C  0.65175018  0.95141071  0.45604755    -0.07500
C991        C  0.63411359  0.93845114  0.48752390     0.06000
C992        C  0.65208913  0.91152773  0.50997927    -0.02500
Br993      Br  0.62960526  0.88995623  0.55208222    -0.02200
H994        H  0.69893932  0.87698534  0.51850802     0.09900
H995        H  0.63897787  0.97252834  0.43868839     0.08000
Br996      Br  0.70722688  0.95448154  0.40243557    -0.02600
C997        C  0.67780313  0.74304327  0.48382412    -0.09300
C998        C  0.69859189  0.73474427  0.45419813     0.06900
C999        C  0.68865015  0.70389433  0.43331690    -0.03000
C1000       C  0.65879741  0.68121035  0.44325366    -0.07500
C1001       C  0.63814416  0.68903440  0.47375300     0.06000
C1002       C  0.64792094  0.72118725  0.49366295    -0.02500
Br1003     Br  0.62395930  0.73785258  0.53589062    -0.02200
H1004       H  0.68537730  0.76680879  0.49994535     0.09900
H1005       H  0.65230658  0.65698459  0.42750413     0.08000
Br1006     Br  0.71507345  0.69200466  0.39126539    -0.02600
C1007       C  0.91150123  0.72204596  0.50723097    -0.09300
C1008       C  0.89048982  0.72557063  0.47406850     0.06900
C1009       C  0.89668052  0.70216437  0.44520347    -0.03000
C1010       C  0.92402802  0.67607772  0.44947224    -0.07500
C1011       C  0.94554217  0.67301569  0.48220352     0.06000
C1012       C  0.93884173  0.69560628  0.51155042    -0.02500
Br1013     Br  0.96577673  0.69055290  0.55770875    -0.02200
H1014       H  0.90664628  0.73993181  0.52960852     0.09900
H1015       H  0.92884853  0.65831812  0.42694786     0.08000
Br1016     Br  0.86946305  0.70598776  0.39902898    -0.02600
C1017       C  0.51836541  0.87791171  0.90022093    -0.09300
C1018       C  0.55268841  0.87160883  0.88624559     0.06900
C1019       C  0.58250118  0.89535823  0.89580010    -0.03000
C1020       C  0.57695389  0.92646611  0.91653156    -0.07500
C1021       C  0.54207619  0.93388386  0.92899018     0.06000
C1022       C  0.51283496  0.90843590  0.92155462    -0.02500
Br1023     Br  0.46349440  0.91532871  0.93604642    -0.02200
H1024       H  0.49521909  0.86000577  0.89283140     0.09900
H1025       H  0.59983749  0.94515347  0.92251872     0.08000
Br1026     Br  0.63091740  0.88676642  0.88003917    -0.02600
C1027       C  0.57956141  0.63228214  0.91294345    -0.09300
C1028       C  0.54844639  0.60878910  0.91488746     0.06900
C1029       C  0.51503018  0.62041211  0.89763646    -0.03000
C1030       C  0.51330099  0.65494588  0.87951449    -0.07500
C1031       C  0.54487798  0.67767888  0.87680097     0.06000
C1032       C  0.57817702  0.66589122  0.89376813    -0.10500
Br1033     Br  0.62330179  0.69345697  0.88914071    -0.02200
H1034       H  0.60575807  0.62388820  0.92540627     0.09900
H1035       H  0.48773399  0.66322890  0.86563685     0.08000
Br1036     Br  0.47122605  0.59051570  0.89757384    -0.02600
C1037       C  0.53529574  0.88323189  0.67077580    -0.09300
C1038       C  0.56552387  0.88370787  0.69572249     0.06900
C1039       C  0.59215982  0.91214291  0.69240939    -0.03000
C1040       C  0.58760499  0.93980227  0.66489137    -0.07500
C1041       C  0.55692893  0.93952249  0.63979943     0.06000
C1042       C  0.53118372  0.90982730  0.64277998    -0.02500
Br1043     Br  0.49165620  0.89988651  0.60797810    -0.02200
H1044       H  0.51502310  0.86113933  0.67256318     0.09900
H1045       H  0.60821038  0.96152368  0.66309231     0.08000
Br1046     Br  0.63556596  0.91357665  0.72417031    -0.02600
C1047       C  0.52195127  0.65324779  0.64873332    -0.09300
C1048       C  0.55306655  0.63292033  0.64164759     0.06900
C1049       C  0.58741694  0.64325767  0.65824727    -0.03000
C1050       C  0.58981149  0.67263886  0.68226037    -0.07500
C1051       C  0.55855392  0.69261549  0.68931116     0.06000
C1052       C  0.52448400  0.68282077  0.67225014    -0.02500
Br1053     Br  0.48069068  0.70901009  0.68076950    -0.02200
H1054       H  0.49560543  0.64655641  0.63522363     0.09900
H1055       H  0.61608086  0.67992520  0.69556595     0.08000
Br1056     Br  0.63232590  0.62076483  0.64660898    -0.02600
C1057       C  0.97608761  0.49726675  0.87772496    -0.09300
C1058       C  0.97031664  0.52162522  0.90596743     0.06900
C1059       C  0.95521170  0.55604380  0.89683875    -0.03000
C1060       C  0.93899113  0.56220404  0.86167483    -0.07500
C1061       C  0.93887683  0.53458610  0.83549604     0.06000
C1062       C  0.96047509  0.50351523  0.84264038    -0.02500
Br1063     Br  0.96335084  0.46542624  0.80768313    -0.02200
H1064       H  0.98903350  0.47118062  0.88375203     0.09900
H1065       H  0.92353836  0.58691371  0.85593160     0.08000
Br1066     Br  0.95593049  0.59461768  0.93151567    -0.02600
C1067       C  0.93341604  0.49023547  0.62903111    -0.09300
C1068       C  0.92407007  0.52354677  0.64431113     0.06900
C1069       C  0.93289599  0.55661516  0.62600128    -0.03000
C1070       C  0.95020168  0.55608721  0.59283495    -0.07500
C1071       C  0.95813613  0.52287219  0.57620887     0.06000
C1072       C  0.94993022  0.48952711  0.59511618    -0.02500
Br1073     Br  0.95944212  0.44218669  0.57631948    -0.02200
H1074       H  0.92591974  0.46459281  0.64262440     0.09900
H1075       H  0.95587040  0.58215859  0.57916939     0.08000
Br1076     Br  0.91853405  0.60317590  0.64328067    -0.02600
C1077       C  0.74464101  0.53654378  0.86127894    -0.09300
C1078       C  0.75299633  0.50359789  0.84523165     0.06900
C1079       C  0.74252474  0.47025687  0.86235274    -0.03000
C1080       C  0.72159872  0.47043392  0.89360622    -0.07500
C1081       C  0.71159166  0.50366239  0.90907357     0.06000
C1082       C  0.72479113  0.53704795  0.89300106    -0.02500
Br1083     Br  0.71735303  0.58501338  0.91173275    -0.02200
H1084       H  0.75427532  0.56222902  0.84921663     0.09900
H1085       H  0.71248674  0.44439570  0.90528231     0.08000
Br1086     Br  0.75709301  0.42408950  0.84438734    -0.02600
C1087       C  0.71948784  0.48826353  0.63686253    -0.09300
C1088       C  0.73476902  0.52038617  0.65194353     0.06900
C1089       C  0.72333842  0.55466178  0.63742625    -0.03000
C1090       C  0.69575290  0.55633005  0.60930590    -0.07500
C1091       C  0.67994003  0.52412479  0.59453603     0.06000
C1092       C  0.69253247  0.48986988  0.60824733    -0.02500
Br1093     Br  0.67229906  0.44433910  0.59053169    -0.02200
H1094       H  0.72879397  0.46180377  0.64730365     0.09900
H1095       H  0.68646747  0.58283956  0.59901895     0.08000
Br1096     Br  0.74499643  0.59961543  0.65515119    -0.02600
loop_ 
_geom_bond_atom_site_label_1 
_geom_bond_atom_site_label_2 
_geom_bond_distance 
_geom_bond_site_symmetry_2 
_ccdc_geom_bond_type 
N1            C6   1.355       .  A
N1            C5   1.355       .  A
N1           H33   1.037       .  S
N2            C9   1.352       .  A
N2           C10   1.353       .  A
N3            C8   1.353       .  A
N3            C7   1.352       .  A
N3           H34   1.036       .  S
N4           C11   1.352       .  A
N4           C12   1.351       .  A
C5           C13   1.388       .  A
C5           C21   1.422       .  A
C6           C22   1.420       .  A
C6           C14   1.386       .  A
C7           C15   1.387       .  A
C7           C24   1.417       .  A
C8           C23   1.415       .  A
C8           C16   1.386       .  A
C9           C21   1.414       .  A
C9           C17   1.386       .  A
C10          C24   1.416       .  A
C10          C18   1.388       .  A
C11          C19   1.385       .  A
C11          C22   1.411       .  A
C12          C20   1.389       .  A
C12          C23   1.417       .  A
C13          C14   1.381       .  A
C13          H25   1.082       .  S
C14          H26   1.082       .  S
C15          C16   1.379       .  A
C15          H27   1.082       .  S
C16          H28   1.082       .  S
C17          C18   1.367       .  A
C17          H29   1.082       .  S
C18          H30   1.082       .  S
C19          C20   1.365       .  A
C19          H31   1.082       .  S
C20          H32   1.081       .  S
C21        C1088   1.489       .  S
C22        C1078   1.489       .  S
C23        C1061   1.483       .  S
C24        C1068   1.488       .  S
N35          C40   1.355       .  A
N35          C39   1.354       .  A
N35          H67   1.032       .  S
N36          C43   1.351       .  A
N36          C44   1.352       .  A
N37          C42   1.356       .  A
N37          C41   1.358       .  A
N37          H68   1.032       .  S
N38          C45   1.358       .  A
N38          C46   1.354       .  A
C39          C47   1.387       .  A
C39          C55   1.420       .  A
C40          C56   1.424       .  A
C40          C48   1.388       .  A
C41          C49   1.387       .  A
C41          C58   1.427       .  A
C42          C57   1.425       .  A
C42          C50   1.387       .  A
C43          C55   1.415       .  A
C43          C51   1.387       .  A
C44          C58   1.418       .  A
C44          C52   1.389       .  A
C45          C53   1.385       .  A
C45          C56   1.421       .  A
C46          C54   1.388       .  A
C46          C57   1.423       .  A
C47          C48   1.378       .  A
C47          H59   1.082       .  S
C48          H60   1.082       .  S
C49          C50   1.380       .  A
C49          H61   1.082       .  S
C50          H62   1.082       .  S
C51          C52   1.363       .  A
C51          H63   1.082       .  S
C52          H64   1.081       .  S
C53          C54   1.370       .  A
C53          H65   1.082       .  S
C54          H66   1.082       .  S
C55        C1051   1.485       .  S
C56        C1038   1.502       .  S
C57        C1018   1.495       .  S
C58        C1031   1.497       .  S
N69          C74   1.350       .  A
N69          C73   1.352       .  A
N69         H101   1.041       .  S
N70          C77   1.353       .  A
N70          C78   1.351       .  A
N71          C76   1.363       .  A
N71          C75   1.362       .  A
N71         H102   1.040       .  S
N72          C79   1.352       .  A
N72          C80   1.351       .  A
C73          C81   1.388       .  A
C73          C89   1.413       .  A
C74          C90   1.408       .  A
C74          C82   1.386       .  A
C75          C83   1.388       .  A
C75          C92   1.437       .  A
C76          C91   1.434       .  A
C76          C84   1.386       .  A
C77          C89   1.413       .  A
C77          C85   1.384       .  A
C78          C92   1.417       .  A
C78          C86   1.389       .  A
C79          C87   1.384       .  A
C79          C90   1.406       .  A
C80          C88   1.390       .  A
C80          C91   1.415       .  A
C81          C82   1.377       .  A
C81          H93   1.082       .  S
C82          H94   1.082       .  S
C83          C84   1.393       .  A
C83          H95   1.082       .  S
C84          H96   1.082       .  S
C85          C86   1.371       .  A
C85          H97   1.083       .  S
C86          H98   1.082       .  S
C87          C88   1.369       .  A
C87          H99   1.083       .  S
C88         H100   1.082       .  S
C89         C998   1.490       .  S
C90        C1008   1.479       .  S
C91         C978   1.511       .  S
C92         C988   1.510       .  S
O103       Ni109   1.910       .  S
O103        C124   1.270       .  A
O104       Ni127   1.897       .  S
O104        C113   1.264       .  A
O105       Ni109   1.878       .  S
O105       Ni127   1.877       .  S
O105       Ni121   1.901       .  S
O105        H128   0.966       .  S
C106        C968   1.483       .  S
C106        O123   1.279       .  A
C106        O115   1.276   1_556  A
O107       Ni126   1.938       .  S
O107        C113   1.272       .  A
O108       Ni126   1.907       .  S
O108        C110   1.270       .  A
Ni109       O112   1.934       .  S
Ni109       O114   1.911   1_556  S
C110        C948   1.488       .  S
C110        O120   1.281       .  A
O111       Ni127   1.916       .  S
O111        C117   1.281       .  A
O112        C117   1.281       .  A
C113        C938   1.469       .  S
O114        C116   1.264       .  A
O115       Ni126   1.909   1_554  S
C116        C958   1.511       .  S
C116        O122   1.275       .  A
C117       C1081   1.496       .  S
H118        O119   0.966   1_554  S
O119       Ni127   1.911       .  S
O119       Ni121   1.919       .  S
O119       Ni126   1.890       .  S
O120       Ni121   1.952       .  S
Ni121       O125   1.944       .  S
Ni121       O123   1.935       .  S
O122       Ni127   1.950   1_554  S
C124       C1028   1.492       .  S
C124        O125   1.281       .  A
O129       Ni135   1.952       .  S
O129        C150   1.279       .  A
O130       Ni153   1.940       .  S
O130        C139   1.270       .  A
O131       Ni135   1.909       .  S
O131       Ni153   1.921       .  S
O131       Ni147   1.918       .  S
O131        H154   0.966       .  S
C132       C1001   1.499       .  S
C132        O149   1.285       .  A
C132        O141   1.272       .  A
O133       Ni152   1.882       .  S
O133        C139   1.255       .  A
O134       Ni152   1.897       .  S
O134        C136   1.265       .  A
Ni135       O138   1.931       .  S
Ni135       O140   1.927       .  S
C136        C911   1.498       .  S
C136        O146   1.279       .  A
O137       Ni153   1.930       .  S
O137        C143   1.282       .  A
O138        C143   1.279       .  A
C139       C1048   1.475       .  S
O140        C142   1.273       .  A
O141       Ni152   1.900       .  S
C142       C1091   1.481       .  S
C142        O148   1.267       .  A
C143        C928   1.479       .  S
H144        O145   0.966       .  S
O145       Ni153   1.921       .  S
O145       Ni147   1.890       .  S
O145       Ni152   1.892       .  S
O146       Ni147   1.967       .  S
Ni147       O151   1.908       .  S
Ni147       O149   1.947       .  S
O148       Ni153   1.916       .  S
C150        C918   1.497       .  S
C150        O151   1.271       .  A
O155       Ni161   1.945   1_545  S
O155        C176   1.272       .  A
O156       Ni179   1.961       .  S
O156        C165   1.286       .  A
O157       Ni161   1.884       .  S
O157       Ni179   1.913       .  S
O157       Ni173   1.882   1_565  S
O157        H180   0.960       .  S
C158        C898   1.499       .  S
C158        O175   1.267       .  A
C158        O167   1.277       .  A
O159       Ni178   1.926   1_565  S
O159        C165   1.273       .  A
O160       Ni178   1.946   1_565  S
O160        C162   1.274       .  A
Ni161       O164   1.915       .  S
Ni161       O166   1.897   1_565  S
C162       C1041   1.506       .  S
C162        O172   1.265       .  A
O163       Ni179   1.938       .  S
O163        C169   1.286       .  A
O164        C169   1.275       .  A
C165        C991   1.502       .  S
O166        C168   1.266       .  A
O167       Ni178   1.946       .  S
C168        C871   1.494       .  S
C168        O174   1.286   1_545  A
C169        C881   1.468       .  S
H170        O171   0.966       .  S
O171       Ni179   1.933   1_545  S
O171       Ni173   1.919       .  S
O171       Ni178   1.928       .  S
O172       Ni173   1.921   1_565  S
Ni173       O177   1.892       .  S
Ni173       O175   1.907       .  S
O174       Ni179   1.978       .  S
C176        C888   1.472       .  S
C176        O177   1.260       .  A
N181        C186   1.355       .  A
N181        C185   1.354       .  A
N181        H213   1.040       .  S
N182        C189   1.353       .  A
N182        C190   1.352       .  A
N183        C188   1.358       .  A
N183        C187   1.357       .  A
N183        H214   1.041       .  S
N184        C191   1.352       .  A
N184        C192   1.350       .  A
C185        C193   1.387       .  A
C185        C201   1.418       .  A
C186        C202   1.420       .  A
C186        C194   1.387       .  A
C187        C195   1.385       .  A
C187        C204   1.420       .  A
C188        C203   1.426       .  A
C188        C196   1.388       .  A
C189        C201   1.412       .  A
C189        C197   1.385       .  A
C190        C204   1.415       .  A
C190        C198   1.388       .  A
C191        C199   1.384       .  A
C191        C202   1.410       .  A
C192        C200   1.388       .  A
C192        C203   1.415       .  A
C193        C194   1.380       .  A
C193        H205   1.082       .  S
C194        H206   1.082       .  S
C195        C196   1.384       .  A
C195        H207   1.082       .  S
C196        H208   1.082       .  S
C197        C198   1.367       .  A
C197        H209   1.082       .  S
C198        H210   1.082       .  S
C199        C200   1.373       .  A
C199        H211   1.082       .  S
C200        H212   1.083       .  S
C201        C858   1.489       .  S
C202        C951   1.495       .  S
C203        C931   1.502       .  S
C204        C901   1.494       .  S
O215       Ni221   1.920       .  S
O215        C236   1.274       .  A
O216       Ni239   1.886       .  S
O216        C225   1.261       .  A
O217       Ni221   1.884   1_545  S
O217       Ni239   1.871       .  S
O217       Ni233   1.900       .  S
O217        H240   0.967       .  S
C218        C851   1.492       .  S
C218        O235   1.278       .  A
C218        O227   1.277   1_556  A
O219       Ni238   1.948       .  S
O219        C225   1.274       .  A
O220       Ni238   1.899       .  S
O220        C222   1.267       .  A
Ni221       O224   1.947   1_565  S
Ni221       O226   1.927   1_556  S
C222        C861   1.471       .  S
C222        O232   1.280       .  A
O223       Ni239   1.914       .  S
O223        C229   1.279       .  A
O224        C229   1.287       .  A
C225        C838   1.471       .  S
O226        C228   1.270   1_565  A
O227       Ni238   1.922   1_554  S
C228        C821   1.495       .  S
C228        O234   1.267       .  A
C229        C828   1.494       .  S
H230        O231   0.964   1_554  S
O231       Ni239   1.918       .  S
O231       Ni233   1.910       .  S
O231       Ni238   1.898       .  S
O232       Ni233   1.949       .  S
Ni233       O237   1.929   1_545  S
Ni233       O235   1.934       .  S
O234       Ni239   1.926   1_554  S
C236       C1021   1.487       .  S
C236        O237   1.282       .  A
N241        C246   1.355       .  A
N241        C245   1.353       .  A
N241        H273   1.039       .  S
N242        C249   1.353       .  A
N242        C250   1.352       .  A
N243        C248   1.355       .  A
N243        C247   1.355       .  A
N243        H274   1.040       .  S
N244        C251   1.352       .  A
N244        C252   1.350       .  A
C245        C253   1.388       .  A
C245        C261   1.417       .  A
C246        C262   1.417       .  A
C246        C254   1.387       .  A
C247        C255   1.385       .  A
C247        C264   1.414       .  A
C248        C263   1.419       .  A
C248        C256   1.388       .  A
C249        C261   1.413       .  A
C249        C257   1.386       .  A
C250        C264   1.416       .  A
C250        C258   1.387       .  A
C251        C259   1.383       .  A
C251        C262   1.409       .  A
C252        C260   1.390       .  A
C252        C263   1.415       .  A
C253        C254   1.373       .  A
C253        H265   1.082       .  S
C254        H266   1.082       .  S
C255        C256   1.377       .  A
C255        H267   1.082       .  S
C256        H268   1.082       .  S
C257        C258   1.370       .  A
C257        H269   1.082       .  S
C258        H270   1.082       .  S
C259        C260   1.369       .  A
C259        H271   1.083       .  S
C260        H272   1.081       .  S
C261        C941   1.487       .  S
C262        C808   1.492       .  S
C263        C798   1.485       .  S
C264        C848   1.491       .  S
N275        C280   1.350       .  A
N275        C279   1.357       .  A
N275        H307   1.039       .  S
N276        C283   1.353       .  A
N276        C284   1.347       .  A
N277        C282   1.356       .  A
N277        C281   1.354       .  A
N277        H308   1.040       .  S
N278        C285   1.353       .  A
N278        C286   1.356       .  A
C279        C287   1.386       .  A
C279        C295   1.418       .  A
C280        C296   1.417       .  A
C280        C288   1.388       .  A
C281        C289   1.387       .  A
C281        C298   1.419       .  A
C282        C297   1.421       .  A
C282        C290   1.386       .  A
C283        C295   1.408       .  A
C283        C291   1.383       .  A
C284        C298   1.415       .  A
C284        C292   1.391       .  A
C285        C293   1.387       .  A
C285        C296   1.416       .  A
C286        C294   1.386       .  A
C286        C297   1.418       .  A
C287        C288   1.381       .  A
C287        H299   1.082       .  S
C288        H300   1.082       .  S
C289        C290   1.384       .  A
C289        H301   1.082       .  S
C290        H302   1.082       .  S
C291        C292   1.369       .  A
C291        H303   1.082       .  S
C292        H304   1.082       .  S
C293        C294   1.370       .  A
C293        H305   1.082       .  S
C294        H306   1.082       .  S
C295        C831   1.497       .  S
C296        C891   1.484       .  S
C297        C791   1.505       .  S
C298        C778   1.485       .  S
N309        C314   1.352       .  A
N309        C313   1.351       .  A
N309        H341   1.041       .  S
N310        C317   1.352       .  A
N310        C318   1.348       .  A
N311        C316   1.354       .  A
N311        C315   1.350       .  A
N311        H342   1.040       .  S
N312        C319   1.345       .  A
N312        C320   1.346       .  A
C313        C321   1.388       .  A
C313        C329   1.413       .  A
C314        C330   1.412       .  A
C314        C322   1.386       .  A
C315        C323   1.386       .  A
C315        C332   1.413       .  A
C316        C331   1.418       .  A
C316        C324   1.388       .  A
C317        C329   1.404       .  A
C317        C325   1.382       .  A
C318        C332   1.416       .  A
C318        C326   1.391       .  A
C319        C327   1.387   1_455  A
C319        C330   1.405       .  A
C320        C328   1.387       .  A
C320        C331   1.407       .  A
C321        C322   1.377       .  A
C321        H333   1.081       .  S
C322        H334   1.082       .  S
C323        C324   1.386       .  A
C323        H335   1.082       .  S
C324        H336   1.082       .  S
C325        C326   1.366       .  A
C325        H337   1.082       .  S
C326        H338   1.081       .  S
C327        C328   1.369   1_655  A
C327        H339   1.083       .  S
C328        H340   1.082       .  S
C329        C758   1.481       .  S
C330        C768   1.478       .  S
C331        C738   1.485       .  S
C332        C751   1.480       .  S
N343        C348   1.356       .  A
N343        C347   1.359       .  A
N343        H375   1.039       .  S
N344        C351   1.357       .  A
N344        C352   1.354       .  A
N345        C350   1.361       .  A
N345        C349   1.358       .  A
N345        H376   1.036       .  S
N346        C353   1.354       .  A
N346        C354   1.356       .  A
C347        C355   1.385       .  A
C347        C363   1.422       .  A
C348        C364   1.424       .  A
C348        C356   1.389       .  A
C349        C357   1.386       .  A
C349        C366   1.427       .  A
C350        C365   1.433       .  A
C350        C358   1.388       .  A
C351        C363   1.415       .  A
C351        C359   1.383       .  A
C352        C366   1.423       .  A
C352        C360   1.390       .  A
C353        C361   1.384       .  A
C353        C364   1.415       .  A
C354        C362   1.391       .  A
C354        C365   1.425       .  A
C355        C356   1.381       .  A
C355        H367   1.082       .  S
C356        H368   1.082       .  S
C357        C358   1.384       .  A
C357        H369   1.082       .  S
C358        H370   1.082       .  S
C359        C360   1.367       .  A
C359        H371   1.082       .  S
C360        H372   1.082       .  S
C361        C362   1.364       .  A
C361        H373   1.082       .  S
C362        H374   1.079       .  S
C363        C731   1.505       .  S
C364        C878   1.492       .  S
C365        C908   1.509       .  S
C366        C718   1.500       .  S
N377        C382   1.356       .  A
N377        C381   1.354       .  A
N377        H409   1.038       .  S
N378        C385   1.351       .  A
N378        C386   1.353       .  A
N379        C384   1.356       .  A
N379        C383   1.360       .  A
N379        H410   1.037       .  S
N380        C387   1.358       .  A
N380        C388   1.354       .  A
C381        C389   1.386       .  A
C381        C397   1.417       .  A
C382        C398   1.421       .  A
C382        C390   1.388       .  A
C383        C391   1.385       .  A
C383        C400   1.425       .  A
C384        C399   1.427       .  A
C384        C392   1.388       .  A
C385        C397   1.413       .  A
C385        C393   1.387       .  A
C386        C400   1.414       .  A
C386        C394   1.387       .  A
C387        C395   1.384       .  A
C387        C398   1.420       .  A
C388        C396   1.389       .  A
C388        C399   1.424       .  A
C389        C390   1.379       .  A
C389        H401   1.082       .  S
C390        H402   1.082       .  S
C391        C392   1.385       .  A
C391        H403   1.082       .  S
C392        H404   1.082       .  S
C393        C394   1.366       .  A
C393        H405   1.082       .  S
C394        H406   1.082       .  S
C395        C396   1.372       .  A
C395        H407   1.082       .  S
C396        H408   1.082       .  S
C397        C708   1.486       .  S
C398        C701   1.502       .  S
C399        C921   1.497       .  S
C400        C961   1.502       .  S
O411       Ni417   1.926       .  S
O411        C432   1.268   1_455  A
O412       Ni435   1.901       .  S
O412        C421   1.266       .  A
O413       Ni417   1.909       .  S
O413       Ni435   1.892       .  S
O413       Ni429   1.890   1_455  S
O413        H436   0.966   1_455  S
C414       C1071   1.494       .  S
C414        O431   1.260       .  A
C414        O423   1.275       .  A
O415       Ni434   1.920       .  S
O415        C421   1.271       .  A
O416       Ni434   1.917   1_655  S
O416        C418   1.270       .  A
Ni417       O420   1.926       .  S
Ni417       O422   1.909       .  S
C418        C698   1.501       .  S
C418        O428   1.277       .  A
O419       Ni435   1.911       .  S
O419        C425   1.274       .  A
O420        C425   1.276       .  A
C421        C691   1.465       .  S
O422        C424   1.269       .  A
O423       Ni434   1.957   1_655  S
C424        C721   1.488       .  S
C424        O430   1.275       .  A
C425        C761   1.462       .  S
H426        O427   0.966       .  S
O427       Ni435   1.938       .  S
O427       Ni429   1.913   1_455  S
O427       Ni434   1.935       .  S
O428       Ni429   1.952       .  S
Ni429       O433   1.890       .  S
Ni429       O431   1.883       .  S
O430       Ni435   1.947       .  S
C432       C1011   1.460       .  S
C432        O433   1.259       .  A
O437       Ni443   1.905   1_545  S
O437        C458   1.266       .  A
O438       Ni461   1.876       .  S
O438        C447   1.256       .  A
O439       Ni443   1.898       .  S
O439       Ni461   1.867       .  S
O439       Ni455   1.910   1_565  S
O439        H462   0.966       .  S
C440        C668   1.478       .  S
C440        O457   1.278       .  A
C440        O449   1.270       .  A
O441       Ni460   1.932   1_565  S
O441        C447   1.270       .  A
O442       Ni460   1.894       .  S
O442        C444   1.271       .  A
Ni443       O446   1.936       .  S
Ni443       O448   1.945       .  S
C444        C681   1.473       .  S
C444        O454   1.287       .  A
O445       Ni461   1.937       .  S
O445        C451   1.283       .  A
O446        C451   1.282       .  A
C447        C771   1.467       .  S
O448        C450   1.272       .  A
O449       Ni460   1.918       .  S
C450        C981   1.516   1_455  S
C450        O456   1.265       .  A
C451        C728   1.504       .  S
H452        O453   0.964       .  S
O453       Ni461   1.937   1_545  S
O453       Ni455   1.937       .  S
O453       Ni460   1.910       .  S
O454       Ni455   1.970       .  S
Ni455       O459   1.958       .  S
Ni455       O457   1.930       .  S
O456       Ni461   1.929       .  S
C458        C788   1.507       .  S
C458        O459   1.286       .  A
O463       Ni469   1.945       .  S
O463        C484   1.278       .  A
O464       Ni487   1.921       .  S
O464        C473   1.272       .  A
O465       Ni469   1.892       .  S
O465       Ni487   1.897   1_654  S
O465       Ni481   1.905   1_655  S
O465        H488   0.967       .  S
C466        C748   1.472       .  S
C466        O483   1.281       .  A
C466        O475   1.274       .  A
O467       Ni486   1.901       .  S
O467        C473   1.264   1_554  A
O468       Ni486   1.914       .  S
O468        C470   1.267       .  A
Ni469       O472   1.937   1_554  S
Ni469       O474   1.927   1_554  S
C470        C661   1.497       .  S
C470        O480   1.267       .  A
O471       Ni487   1.925   1_655  S
O471        C477   1.283       .  A
O472        C477   1.279       .  A
C473        C648   1.460       .  S
O474        C476   1.275       .  A
O475       Ni486   1.911       .  S
C476       C1058   1.478       .  S
C476        O482   1.269       .  A
C477        C811   1.480       .  S
H478        O479   0.966   1_556  S
O479       Ni487   1.919   1_554  S
O479       Ni481   1.880       .  S
O479       Ni486   1.895       .  S
O480       Ni481   1.926       .  S
Ni481       O485   1.885   1_455  S
Ni481       O483   1.931       .  S
O482       Ni487   1.918   1_655  S
C484        C711   1.468       .  S
C484        O485   1.265       .  A
N489        C494   1.351       .  A
N489        C493   1.353       .  A
N489        H521   1.040       .  S
N490        C497   1.354       .  A
N490        C498   1.350       .  A
N491        C496   1.358       .  A
N491        C495   1.356       .  A
N491        H522   1.041       .  S
N492        C499   1.354       .  A
N492        C500   1.352       .  A
C493        C501   1.386       .  A
C493        C509   1.412       .  A
C494        C510   1.415       .  A
C494        C502   1.388       .  A
C495        C503   1.386       .  A
C495        C512   1.423       .  A
C496        C511   1.425       .  A
C496        C504   1.387       .  A
C497        C509   1.409       .  A
C497        C505   1.383       .  A
C498        C512   1.415       .  A
C498        C506   1.390       .  A
C499        C507   1.383       .  A
C499        C510   1.412       .  A
C500        C508   1.390       .  A
C500        C511   1.422       .  A
C501        C502   1.379       .  A
C501        H513   1.082       .  S
C502        H514   1.082       .  S
C503        C504   1.386       .  A
C503        H515   1.082       .  S
C504        H516   1.082       .  S
C505        C506   1.369       .  A
C505        H517   1.082       .  S
C506        H518   1.082       .  S
C507        C508   1.373       .  A
C507        H519   1.082       .  S
C508        H520   1.083       .  S
C509        C638   1.489       .  S
C510        C678   1.489       .  S
C511        C868   1.507       .  S
C512        C818   1.492       .  S
O523       Ni529   1.948       .  S
O523        C544   1.279       .  A
O524       Ni547   1.931       .  S
O524        C533   1.272       .  A
O525       Ni529   1.903   1_554  S
O525       Ni547   1.903       .  S
O525       Ni541   1.896   1_554  S
O525        H548   0.967   1_554  S
C526        C621   1.483       .  S
C526        O543   1.275       .  A
C526        O535   1.279   1_556  A
O527       Ni546   1.905       .  S
O527        C533   1.265       .  A
O528       Ni546   1.911       .  S
O528        C530   1.269   1_554  A
Ni529       O532   1.920   1_546  S
Ni529       O534   1.933   1_556  S
C530        C801   1.485   1_455  S
C530        O540   1.271       .  A
O531       Ni547   1.929       .  S
O531        C537   1.285   1_545  A
O532        C537   1.278       .  A
C533        C628   1.483       .  S
O534        C536   1.273       .  A
O535       Ni546   1.923       .  S
C536        C641   1.483       .  S
C536        O542   1.265       .  A
C537        C741   1.466       .  S
H538        O539   0.964       .  S
O539       Ni547   1.931       .  S
O539       Ni541   1.888   1_554  S
O539       Ni546   1.896       .  S
O540       Ni541   1.928       .  S
Ni541       O545   1.885       .  S
Ni541       O543   1.924       .  S
O542       Ni547   1.914       .  S
C544        C781   1.463       .  S
C544        O545   1.262       .  A
N549        C554   1.354       .  A
N549        C553   1.352       .  A
N549        H581   1.035       .  S
N550        C557   1.353       .  A
N550        C558   1.352       .  A
N551        C556   1.355       .  A
N551        C555   1.348       .  A
N551        H582   1.035       .  S
N552        C559   1.351       .  A
N552        C560   1.352       .  A
C553        C561   1.390       .  A
C553        C569   1.424       .  A
C554        C570   1.422       .  A
C554        C562   1.386       .  A
C555        C563   1.392       .  A
C555        C572   1.420       .  A
C556        C571   1.415       .  A
C556        C564   1.383       .  A
C557        C569   1.420       .  A
C557        C565   1.387       .  A
C558        C572   1.419       .  A
C558        C566   1.388       .  A
C559        C567   1.383       .  A
C559        C570   1.400       .  A
C560        C568   1.385       .  A
C560        C571   1.401       .  A
C561        C562   1.385       .  A
C561        H573   1.082       .  S
C562        H574   1.082       .  S
C563        C564   1.383       .  A
C563        H575   1.082       .  S
C564        H576   1.082       .  S
C565        C566   1.372       .  A
C565        H577   1.082       .  S
C566        H578   1.082       .  S
C567        C568   1.369       .  A
C567        H579   1.083       .  S
C568        H580   1.083       .  S
C569        C658   1.491       .  S
C570        C631   1.489       .  S
C571        C671   1.484       .  S
C572        C688   1.479       .  S
N583        C588   1.352       .  A
N583        C587   1.355       .  A
N583        H615   1.039       .  S
N584        C591   1.346       .  A
N584        C592   1.346       .  A
N585        C590   1.350       .  A
N585        C589   1.353       .  A
N585        H616   1.041       .  S
N586        C593   1.354       .  A
N586        C594   1.353       .  A
C587        C595   1.386       .  A
C587        C603   1.417       .  A
C588        C604   1.417       .  A
C588        C596   1.388       .  A
C589        C597   1.388       .  A
C589        C606   1.414       .  A
C590        C605   1.407       .  A
C590        C598   1.385       .  A
C591        C603   1.404       .  A
C591        C599   1.385       .  A
C592        C606   1.407       .  A
C592        C600   1.388       .  A
C593        C601   1.387       .  A
C593        C604   1.415       .  A
C594        C602   1.387       .  A
C594        C605   1.415       .  A
C595        C596   1.376       .  A
C595        H607   1.083       .  S
C596        H608   1.081       .  S
C597        C598   1.378       .  A
C597        H609   1.082       .  S
C598        H610   1.083       .  S
C599        C600   1.369       .  A
C599        H611   1.081       .  S
C600        H612   1.082       .  S
C601        C602   1.369       .  A
C601        H613   1.082       .  S
C602        H614   1.082       .  S
C603        C618   1.489       .  S
C604        C841   1.486       .  S
C605        C971   1.482       .  S
C606        C651   1.478       .  S
C617        C618   1.404       .  A
C617        C622   1.405       .  A
C617        H624   1.083       .  S
C618        C619   1.410       .  A
C619        C620   1.394       .  A
C619       Br626   1.923   1_556  S
C620        C621   1.403       .  A
C620        H625   1.084   1_556  S
C621        C622   1.415       .  A
C622       Br623   1.920       .  S
C627        C628   1.404       .  A
C627        C632   1.400       .  A
C627        H634   1.083       .  S
C628        C629   1.411       .  A
C629        C630   1.400       .  A
C629       Br636   1.913   1_455  S
C630        C631   1.403       .  A
C630        H635   1.083       .  S
C631        C632   1.413       .  A
C632       Br633   1.920       .  S
C637        C638   1.400       .  A
C637        C642   1.399       .  A
C637        H644   1.084       .  S
C638        C639   1.409       .  A
C639        C640   1.405       .  A
C639       Br646   1.917   1_545  S
C640        C641   1.406       .  A
C640        H645   1.083   1_545  S
C641        C642   1.413       .  A
C642       Br643   1.916       .  S
C647        C648   1.404       .  A
C647        C652   1.401       .  A
C647        H654   1.084       .  S
C648        C649   1.406       .  A
C649        C650   1.388       .  A
C649       Br656   1.922   1_556  S
C650        C651   1.400       .  A
C650        H655   1.084       .  S
C651        C652   1.407       .  A
C652       Br653   1.916       .  S
C657        C658   1.402       .  A
C657        C662   1.403       .  A
C657        H664   1.084       .  S
C658        C659   1.404       .  A
C659        C660   1.400       .  A
C659       Br666   1.917       .  S
C660        C661   1.412       .  A
C660        H665   1.083       .  S
C661        C662   1.420       .  A
C662       Br663   1.923   1_455  S
C667        C668   1.404       .  A
C667        C672   1.402       .  A
C667        H674   1.084       .  S
C668        C669   1.412       .  A
C669        C670   1.404       .  A
C669       Br676   1.918       .  S
C670        C671   1.403       .  A
C670        H675   1.083       .  S
C671        C672   1.408       .  A
C672       Br673   1.919       .  S
C677        C678   1.404       .  A
C677        C682   1.402       .  A
C677        H684   1.083   1_545  S
C678        C679   1.408       .  A
C679        C680   1.401       .  A
C679       Br686   1.919       .  S
C680        C681   1.405       .  A
C680        H685   1.084       .  S
C681        C682   1.407       .  A
C682       Br683   1.915   1_545  S
C687        C688   1.397       .  A
C687        C692   1.388       .  A
C687        H694   1.084       .  S
C688        C689   1.409       .  A
C689        C690   1.404       .  A
C689       Br696   1.916       .  S
C690        C691   1.405       .  A
C690        H695   1.083       .  S
C691        C692   1.406       .  A
C692       Br693   1.917   1_455  S
C697        C698   1.411       .  A
C697        C702   1.405       .  A
C697        H704   1.083       .  S
C698        C699   1.417       .  A
C699        C700   1.407       .  A
C699       Br706   1.918       .  S
C700        C701   1.404       .  A
C700        H705   1.083       .  S
C701        C702   1.408       .  A
C702       Br703   1.917       .  S
C707        C708   1.404       .  A
C707        C712   1.402       .  A
C707        H714   1.083       .  S
C708        C709   1.410       .  A
C709        C710   1.396       .  A
C709       Br716   1.921       .  S
C710        C711   1.401       .  A
C710        H715   1.084       .  S
C711        C712   1.407       .  A
C712       Br713   1.918       .  S
C717        C718   1.409       .  A
C717        C722   1.404       .  A
C717        H724   1.083       .  S
C718        C719   1.409       .  A
C719        C720   1.404       .  A
C719       Br726   1.917       .  S
C720        C721   1.407       .  A
C720        H725   1.084       .  S
C721        C722   1.411       .  A
C722       Br723   1.920       .  S
C727        C728   1.412       .  A
C727        C732   1.406       .  A
C727        H734   1.083       .  S
C728        C729   1.416       .  A
C729        C730   1.409       .  A
C729       Br736   1.918       .  S
C730        C731   1.407       .  A
C730        H735   1.083       .  S
C731        C732   1.408       .  A
C732       Br733   1.918       .  S
C737        C738   1.401       .  A
C737        C742   1.400       .  A
C737        H744   1.083       .  S
C738        C739   1.413       .  A
C739        C740   1.398       .  A
C739       Br746   1.919       .  S
C740        C741   1.399       .  A
C740        H745   1.084       .  S
C741        C742   1.410       .  A
C742       Br743   1.919       .  S
C747        C748   1.404       .  A
C747        C752   1.398       .  A
C747        H754   1.084       .  S
C748        C749   1.408       .  A
C749        C750   1.400       .  A
C749       Br756   1.919       .  S
C750        C751   1.406       .  A
C750        H755   1.084       .  S
C751        C752   1.407       .  A
C752       Br753   1.918   1_455  S
C757        C758   1.401       .  A
C757        C762   1.396       .  A
C757        H764   1.084   1_455  S
C758        C759   1.408       .  A
C759        C760   1.397       .  A
C759       Br766   1.919       .  S
C760        C761   1.402       .  A
C760        H765   1.084       .  S
C761        C762   1.408       .  A
C762       Br763   1.921   1_455  S
C767        C768   1.403       .  A
C767        C772   1.390       .  A
C767        H774   1.084       .  S
C768        C769   1.404       .  A
C769        C770   1.398       .  A
C769       Br776   1.918   1_455  S
C770        C771   1.408       .  A
C770        H775   1.084   1_455  S
C771        C772   1.407       .  A
C772       Br773   1.921       .  S
C777        C778   1.407       .  A
C777        C782   1.394       .  A
C777        H784   1.084       .  S
C778        C779   1.408       .  A
C779        C780   1.402       .  A
C779       Br786   1.916       .  S
C780        C781   1.403       .  A
C780        H785   1.083       .  S
C781        C782   1.403       .  A
C782       Br783   1.919       .  S
C787        C788   1.408       .  A
C787        C792   1.410       .  A
C787        H794   1.083       .  S
C788        C789   1.429       .  A
C789        C790   1.402       .  A
C789       Br796   1.926   1_545  S
C790        C791   1.398       .  A
C790        H795   1.084       .  S
C791        C792   1.414       .  A
C792       Br793   1.918       .  S
C797        C798   1.396       .  A
C797        C802   1.390   1_556  A
C797        H804   1.084   1_556  S
C798        C799   1.408       .  A
C799        C800   1.406       .  A
C799       Br806   1.916       .  S
C800        C801   1.409       .  A
C800        H805   1.083       .  S
C801        C802   1.414   1_556  A
C802       Br803   1.914       .  S
C807        C808   1.400       .  A
C807        C812   1.399       .  A
C807        H814   1.084       .  S
C808        C809   1.412       .  A
C809        C810   1.401       .  A
C809       Br816   1.921   1_556  S
C810        C811   1.403       .  A
C810        H815   1.083       .  S
C811        C812   1.415       .  A
C812       Br813   1.916       .  S
C817        C818   1.401       .  A
C817        C822   1.404       .  A
C817        H824   1.084       .  S
C818        C819   1.410   1_545  A
C819        C820   1.403       .  A
C819       Br826   1.918       .  S
C820        C821   1.406   1_565  A
C820        H825   1.083       .  S
C821        C822   1.420       .  A
C822       Br823   1.919       .  S
C827        C828   1.411       .  A
C827        C832   1.402   1_545  A
C827        H834   1.083   1_545  S
C828        C829   1.416       .  A
C829        C830   1.406       .  A
C829       Br836   1.922       .  S
C830        C831   1.406       .  A
C830        H835   1.083       .  S
C831        C832   1.406   1_545  A
C832       Br833   1.918       .  S
C837        C838   1.405       .  A
C837        C842   1.401       .  A
C837        H844   1.084       .  S
C838        C839   1.410       .  A
C839        C840   1.395       .  A
C839       Br846   1.920   1_556  S
C840        C841   1.401       .  A
C840        H845   1.084   1_556  S
C841        C842   1.409       .  A
C842       Br843   1.917       .  S
C847        C848   1.400       .  A
C847        C852   1.404       .  A
C847        H854   1.083       .  S
C848        C849   1.407   1_556  A
C849        C850   1.399       .  A
C849       Br856   1.919       .  S
C850        C851   1.408   1_554  A
C850        H855   1.083       .  S
C851        C852   1.420       .  A
C852       Br853   1.922       .  S
C857        C858   1.402       .  A
C857        C862   1.400       .  A
C857        H864   1.083       .  S
C858        C859   1.409       .  A
C859        C860   1.401       .  A
C859       Br866   1.918       .  S
C860        C861   1.404       .  A
C860        H865   1.084       .  S
C861        C862   1.410       .  A
C862       Br863   1.917       .  S
C867        C868   1.399   1_565  A
C867        C872   1.390       .  A
C867        H874   1.084       .  S
C868        C869   1.416       .  A
C869        C870   1.418       .  A
C869       Br876   1.914       .  S
C870        C871   1.409       .  A
C870        H875   1.083       .  S
C871        C872   1.418   1_545  A
C872       Br873   1.922       .  S
C877        C878   1.405       .  A
C877        C882   1.406       .  A
C877        H884   1.083       .  S
C878        C879   1.407       .  A
C879        C880   1.397       .  A
C879       Br886   1.918       .  S
C880        C881   1.402       .  A
C880        H885   1.084       .  S
C881        C882   1.411       .  A
C882       Br883   1.917       .  S
C887        C888   1.403       .  A
C887        C892   1.404       .  A
C887        H894   1.083       .  S
C888        C889   1.409   1_545  A
C889        C890   1.394       .  A
C889       Br896   1.914       .  S
C890        C891   1.398   1_565  A
C890        H895   1.084       .  S
C891        C892   1.411       .  A
C892       Br893   1.918       .  S
C897        C898   1.408       .  A
C897        C902   1.408       .  A
C897        H904   1.083       .  S
C898        C899   1.423       .  A
C899        C900   1.401       .  A
C899       Br906   1.923       .  S
C900        C901   1.399       .  A
C900        H905   1.084       .  S
C901        C902   1.410       .  A
C902       Br903   1.917       .  S
C907        C908   1.398       .  A
C907        C912   1.399       .  A
C907        H914   1.084       .  S
C908        C909   1.418       .  A
C909        C910   1.415       .  A
C909       Br916   1.916       .  S
C910        C911   1.406       .  A
C910        H915   1.083       .  S
C911        C912   1.417       .  A
C912       Br913   1.914       .  S
C917        C918   1.410       .  A
C917        C922   1.405       .  A
C917        H924   1.083       .  S
C918        C919   1.417       .  A
C919        C920   1.404       .  A
C919       Br926   1.920       .  S
C920        C921   1.403       .  A
C920        H925   1.084       .  S
C921        C922   1.408       .  A
C922       Br923   1.916       .  S
C927        C928   1.407       .  A
C927        C932   1.406       .  A
C927        H934   1.083       .  S
C928        C929   1.405       .  A
C929        C930   1.398       .  A
C929       Br936   1.919       .  S
C930        C931   1.410       .  A
C930        H935   1.084       .  S
C931        C932   1.412       .  A
C932       Br933   1.918       .  S
C937        C938   1.401       .  A
C937        C942   1.398       .  A
C937        H944   1.084   1_556  S
C938        C939   1.410       .  A
C939        C940   1.398       .  A
C939       Br946   1.918       .  S
C940        C941   1.402       .  A
C940        H945   1.083       .  S
C941        C942   1.411       .  A
C942       Br943   1.919   1_556  S
C947        C948   1.410       .  A
C947        C952   1.399       .  A
C947        H954   1.084       .  S
C948        C949   1.412       .  A
C949        C950   1.407       .  A
C949       Br956   1.919       .  S
C950        C951   1.407       .  A
C950        H955   1.083       .  S
C951        C952   1.405       .  A
C952       Br953   1.918       .  S
C957        C958   1.411       .  A
C957        C962   1.406       .  A
C957        H964   1.083       .  S
C958        C959   1.426       .  A
C959        C960   1.408       .  A
C959       Br966   1.923       .  S
C960        C961   1.402       .  A
C960        H965   1.083       .  S
C961        C962   1.409       .  A
C962       Br963   1.918       .  S
C967        C968   1.408   1_554  A
C967        C972   1.396       .  A
C967        H974   1.084       .  S
C968        C969   1.418       .  A
C969        C970   1.398       .  A
C969       Br976   1.920       .  S
C970        C971   1.399       .  A
C970        H975   1.084       .  S
C971        C972   1.405   1_556  A
C972       Br973   1.918       .  S
C977        C978   1.400       .  A
C977        C982   1.409       .  A
C977        H984   1.083       .  S
C978        C979   1.418       .  A
C979        C980   1.413       .  A
C979       Br986   1.919       .  S
C980        C981   1.410       .  A
C980        H985   1.083       .  S
C981        C982   1.425       .  A
C982       Br983   1.918       .  S
C987        C988   1.405       .  A
C987        C992   1.404       .  A
C987        H994   1.084       .  S
C988        C989   1.415       .  A
C989        C990   1.419       .  A
C989       Br996   1.916       .  S
C990        C991   1.411       .  A
C990        H995   1.083       .  S
C991        C992   1.414       .  A
C992       Br993   1.921       .  S
C997        C998   1.395       .  A
C997       C1002   1.391       .  A
C997       H1004   1.084       .  S
C998        C999   1.408       .  A
C999       C1000   1.408       .  A
C999      Br1006   1.917       .  S
C1000      C1001   1.414       .  A
C1000      H1005   1.083       .  S
C1001      C1002   1.426       .  A
C1002     Br1003   1.928       .  S
C1007      C1008   1.406       .  A
C1007      C1012   1.401       .  A
C1007      H1014   1.083       .  S
C1008      C1009   1.404       .  A
C1009      C1010   1.392       .  A
C1009     Br1016   1.919       .  S
C1010      C1011   1.401       .  A
C1010      H1015   1.084       .  S
C1011      C1012   1.404       .  A
C1012     Br1013   1.917       .  S
C1017      C1018   1.399       .  A
C1017      C1022   1.400       .  A
C1017      H1024   1.084       .  S
C1018      C1019   1.411       .  A
C1019      C1020   1.405       .  A
C1019     Br1026   1.916       .  S
C1020      C1021   1.404       .  A
C1020      H1025   1.083       .  S
C1021      C1022   1.419       .  A
C1022     Br1023   1.922       .  S
C1027      C1028   1.410       .  A
C1027      C1032   1.397       .  A
C1027      H1034   1.084       .  S
C1028      C1029   1.411       .  A
C1029      C1030   1.409       .  A
C1029     Br1036   1.914       .  S
C1030      C1031   1.410       .  A
C1030      H1035   1.083       .  S
C1031      C1032   1.405       .  A
C1032     Br1033   1.921       .  S
C1037      C1038   1.395       .  A
C1037      C1042   1.396       .  A
C1037      H1044   1.084       .  S
C1038      C1039   1.412       .  A
C1039      C1040   1.412       .  A
C1039     Br1046   1.916       .  S
C1040      C1041   1.411       .  A
C1040      H1045   1.083       .  S
C1041      C1042   1.423       .  A
C1042     Br1043   1.910       .  S
C1047      C1048   1.406       .  A
C1047      C1052   1.396       .  A
C1047      H1054   1.084       .  S
C1048      C1049   1.412       .  A
C1049      C1050   1.402       .  A
C1049     Br1056   1.917       .  S
C1050      C1051   1.403       .  A
C1050      H1055   1.083       .  S
C1051      C1052   1.405       .  A
C1052     Br1053   1.919       .  S
C1057      C1058   1.406       .  A
C1057      C1062   1.392       .  A
C1057      H1064   1.083       .  S
C1058      C1059   1.407       .  A
C1059      C1060   1.403       .  A
C1059     Br1066   1.918       .  S
C1060      C1061   1.408       .  A
C1060      H1065   1.083       .  S
C1061      C1062   1.405       .  A
C1062     Br1063   1.920       .  S
C1067      C1068   1.406       .  A
C1067      C1072   1.405       .  A
C1067      H1074   1.084       .  S
C1068      C1069   1.403       .  A
C1069      C1070   1.394       .  A
C1069     Br1076   1.919       .  S
C1070      C1071   1.411       .  A
C1070      H1075   1.083       .  S
C1071      C1072   1.417       .  A
C1072     Br1073   1.920       .  S
C1077      C1078   1.397       .  A
C1077      C1082   1.397       .  A
C1077      H1084   1.084       .  S
C1078      C1079   1.407       .  A
C1079      C1080   1.404       .  A
C1079     Br1086   1.918       .  S
C1080      C1081   1.413       .  A
C1080      H1085   1.083       .  S
C1081      C1082   1.423       .  A
C1082     Br1083   1.925       .  S
C1087      C1088   1.401       .  A
C1087      C1092   1.400       .  A
C1087      H1094   1.083       .  S
C1088      C1089   1.408       .  A
C1089      C1090   1.403       .  A
C1089     Br1096   1.919       .  S
C1090      C1091   1.406       .  A
C1090      H1095   1.083       .  S
C1091      C1092   1.411       .  A
C1092     Br1093   1.918       .  S
