geometry optimzed in LAMMPS
_audit_creation_date              2020-11-30 
_audit_creation_method            'lammps2cif' 
_symmetry_space_group_name_H-M    'P1' 
_symmetry_Int_Tables_number       1 
_symmetry_cell_setting            triclinic 
loop_ 
_symmetry_equiv_pos_as_xyz 
  x,y,z 
_cell_length_a                    24.72416947 
_cell_length_b                    39.48255201606472 
_cell_length_c                    39.320628566267445 
_cell_angle_alpha                 90.69827723420796 
_cell_angle_beta                  79.04178731968749 
_cell_angle_gamma                 90.23655480741107 
loop_ 
_atom_site_label 
_atom_site_type_symbol 
_atom_site_fract_x 
_atom_site_fract_y 
_atom_site_fract_z 
_atom_site_charge 
C1          C  0.08225696  0.15449016  0.00922966     0.85500
C2          C  0.03675870  0.18080753  0.01106418    -0.54800
C3          C  0.05402879  0.21353229  0.00643865     0.08400
C4          C  0.11686519  0.21690840  0.33698691     0.19300
C5          C  0.12346341  0.16170241  0.30885678    -0.55500
C6          C  0.14185592  0.19432158  0.30596347     0.08500
C7          C  0.11214403  0.16522400  0.03823173    -0.55000
C8          C  0.12986973  0.19840163  0.03568843     0.09100
H9          H  0.49360264  0.17351264  0.01461897     0.13600
H10         H  0.13355986  0.24285548  0.33365612    -0.00700
H11         H  0.13261818  0.14355597  0.28754384     0.13900
H12         H  0.11702710  0.14873683  0.05934175     0.13700
C13         C  0.36409878  0.37123995  0.30882234     0.85500
C14         C  0.32312357  0.36404758  0.00948168    -0.54800
C15         C  0.30513231  0.33136836  0.01259996     0.08400
C16         C  0.33002947  0.30859906  0.31490726     0.19300
C17         C  0.40991710  0.34508447  0.30718739    -0.55500
C18         C  0.39304079  0.31230031  0.31195318     0.08500
C19         C  0.33421953  0.35998705  0.27991488    -0.55000
C20         C  0.31670209  0.32672977  0.28282865     0.09100
H21         H  0.31405554  0.38227595  0.03072420     0.13600
H22         H  0.31337785  0.28266444  0.31849321    -0.00700
H23         H  0.45294364  0.35259581  0.30369062     0.13900
H24         H  0.32901500  0.37622457  0.25868395     0.13700
Zr25       Zr  0.17576552  0.28825239  0.10898806     2.17500
O26         O  0.07989695  0.29544874  0.10374037    -0.52400
O27         O  0.23210204  0.31249047  0.05692789    -0.75600
O28         O  0.14302282  0.34723383  0.11586517    -0.82300
O29         O  0.17856840  0.19500932  0.08122430    -0.84100
O30         O  0.16574795  0.36444953  0.16681401    -0.79700
O31         O  0.15365257  0.24735240  0.06596988    -0.91400
O32         O  0.32141836  0.30816991  0.06365287    -0.77300
O33         O  0.24810952  0.31677605  0.13035866    -0.86800
O34         O  0.25514293  0.25273988  0.09606462    -0.86500
O35         O  0.14398850  0.29503202  0.17036664    -0.73300
O36         O  0.15129730  0.23589301  0.13869109    -0.85400
Zr37       Zr  0.27277225  0.23619192  0.20906158     2.26400
Zr38       Zr  0.21706539  0.32264626  0.19131316     2.06300
Zr39       Zr  0.23148762  0.20139373  0.12644736     2.10000
Zr40       Zr  0.32668346  0.28105229  0.11759579     1.78800
O41         O  0.17758162  0.14942144  0.13608273    -0.94200
O42         O  0.37814679  0.33389733  0.11696362    -0.42000
O43         O  0.30421193  0.22909458  0.14763778    -0.78600
O44         O  0.29771516  0.28829036  0.17874455    -0.97300
O45         O  0.19304756  0.27132377  0.22172713    -0.90600
O46         O  0.20071585  0.20762939  0.18732028    -0.93500
C47         C  0.28431234  0.31673142  0.04673212     1.00300
C48         C  0.15602857  0.21482740  0.06245975     1.13200
C49         C  0.14365722  0.36923954  0.14028808     1.04000
O50         O  0.27048751  0.37490646  0.18624713    -0.95600
O51         O  0.26617400  0.32949830  0.23822534    -0.91400
O52         O  0.29414316  0.27745046  0.25227625    -0.84500
C53         C  0.29012457  0.30991517  0.25642208     1.10600
O54         O  0.03078564  0.25067351  0.18536218    -0.97600
Zr55       Zr  0.12162164  0.24295902  0.19990511     1.88900
O56         O  0.21553146  0.21269297  0.26145692    -0.74200
O57         O  0.14971977  0.34514014  0.23956169    -0.53500
O58         O  0.06688402  0.28066196  0.24241172    -0.98200
O59         O  0.06949186  0.19019123  0.20107131    -0.55400
O60         O  0.12624213  0.21747606  0.25472584    -0.74800
C61         C  0.16316943  0.20895549  0.27179832     0.97600
O62         O  0.36842490  0.22957961  0.21510610    -0.63600
O63         O  0.29580973  0.17730307  0.07742605    -0.58400
O64         O  0.30678974  0.17740886  0.20167742    -0.95100
O65         O  0.28808314  0.16148465  0.14925817    -0.93500
O66         O  0.38218202  0.24424071  0.07455109    -0.93800
O67         O  0.41903261  0.27494806  0.13003441    -0.92600
C68         C  0.30883562  0.15621150  0.17622743     1.16400
H69         H  0.26554500  0.24831280  0.07148329     0.32400
H70         H  0.32779383  0.29906427  0.18718951     0.43200
H71         H  0.19342664  0.18572888  0.19794584     0.36800
H72         H  0.11131725  0.30892985  0.17478907     0.33200
H73         H  0.40394061  0.33374303  0.09435395     0.25000
H74         H  0.16036507  0.36919516  0.24146228     0.31000
H75         H  0.04373223  0.26541986  0.25897291     0.36900
H76         H  0.41047122  0.25938778  0.06144410     0.31300
H77         H  0.28456290  0.15328079  0.07628657     0.30200
H78         H  0.19553147  0.13356427  0.11770396     0.31900
H79         H  0.04797819  0.18876926  0.22498459     0.30900
H80         H  0.42101744  0.25110796  0.13721051     0.34800
H81         H  0.38716869  0.21846843  0.19336195     0.27600
H82         H  0.06150005  0.30640300  0.12565508     0.31800
H83         H  0.00380075  0.24402987  0.20619021     0.34700
H84         H  0.28608554  0.18758299  0.05655322     0.27300
H85         H  0.38378565  0.25283636  0.21351539     0.40100
H86         H  0.27924842  0.37944609  0.16109670     0.30200
H87         H  0.35121308  0.35182959  0.11474006     0.37800
H88         H  0.09712399  0.17189494  0.19951014     0.29700
H89         H  0.11465737  0.34595194  0.23092753     0.29700
H90         H  0.06441177  0.27222333  0.10520038     0.30000
C91         C  0.33229337  0.12100505  0.17686261     0.85500
C92         C  0.37415511  0.11236899  0.14355512    -0.54800
C93         C  0.38953025  0.07912580  0.14048429     0.08400
C94         C  0.36290542  0.05762584  0.17167832     0.19300
C95         C  0.28514895  0.09578047  0.17698527    -0.55500
C96         C  0.30105173  0.06303065  0.17377521     0.08500
C97         C  0.36021913  0.10971808  0.20656172    -0.55000
C98         C  0.37637984  0.07619168  0.20396243     0.09100
H99         H  0.38518067  0.13004165  0.12237002     0.13600
H100        H  0.37543021  0.03057276  0.16920178    -0.00700
H101        H  0.24279149  0.10332265  0.17725112     0.13900
H102        H  0.36604566  0.12639379  0.22773198     0.13700
C103        C  0.12041584  0.40438420  0.13914912     0.85500
C104        C  0.16713560  0.42982857  0.13939588    -0.54800
C105        C  0.15077341  0.46250267  0.14231101     0.08400
C106        C  0.08909382  0.46759518  0.14357002     0.19300
C107        C  0.07762802  0.41303799  0.17198776    -0.55500
C108        C  0.06182960  0.44620775  0.17472464     0.08500
C109        C  0.09339594  0.41523595  0.10893591    -0.55000
C110        C  0.07711064  0.44870589  0.11103916     0.09100
H111        H  0.20944586  0.42252219  0.13958577     0.13600
H112        H  0.07617529  0.99452903  0.14573728    -0.00700
H113        H  0.06641009  0.39548293  0.19326380     0.13900
H114        H  0.08829311  0.39833610  0.08777951     0.13700
Zr115      Zr  0.02210470  0.03968984  0.04284086     2.17500
O116        O  0.09850838  0.05491800  0.07113268    -0.52400
O117        O  0.46180451  0.06291375  0.09434115    -0.75600
O118        O  0.05875345  0.09782304  0.03217164    -0.82300
O119        O  0.02578092  0.44472409  0.06646514    -0.84100
O120        O  0.03198203  0.11512486  0.31665352    -0.79700
O121        O  0.05307906  0.99721192  0.08079861    -0.91400
O122        O  0.37286552  0.05262442  0.08977258    -0.77300
O123        O  0.44791615  0.06591243  0.02210843    -0.86800
O124        O  0.44535378  0.00202815  0.05422717    -0.86500
O125        O  0.05457561  0.04684165  0.31463636    -0.73300
O126        O  0.05062332  0.48832291  0.01090627    -0.85400
Zr127      Zr  0.42952440  0.48477616  0.27282793     2.26400
Zr128      Zr  0.47875895  0.07235898  0.29446320     2.06300
Zr129      Zr  0.47260699  0.45161396  0.02159023     2.10000
Zr130      Zr  0.37193861  0.02787828  0.03311726     1.78800
O131        O  0.03159191  0.40234731  0.00615006    -0.94200
O132        O  0.31683597  0.07932451  0.03712866    -0.42000
O133        O  0.39726407  0.47679461  0.00098577    -0.78600
O134        O  0.40045511  0.03574428  0.30534422    -0.97300
O135        O  0.50679483  0.02197141  0.26174732    -0.90600
O136        O  0.50316737  0.45785304  0.29368340    -0.93500
C137        C  0.40967764  0.06385363  0.10602351     1.00300
C138        C  0.05032509  0.46475707  0.08445244     1.13200
C139        C  0.05660402  0.11985124  0.00859323     1.04000
O140        O  0.41857042  0.12142115  0.30742150    -0.95600
O141        O  0.42900596  0.07961587  0.24791972    -0.91400
O142        O  0.40002463  0.02733952  0.23412016    -0.84500
C143        C  0.40379592  0.05979703  0.23010551     1.10600
O144        O  0.16735219  0.99979413  0.30229426    -0.97600
Zr145      Zr  0.07959722  0.49544798  0.28302003     1.88900
O146        O  0.48955918  0.46208853  0.22099989    -0.74200
O147        O  0.03765266  0.09952488  0.24557491    -0.53500
O148        O  0.13253568  0.03707333  0.24525573    -0.98200
O149        O  0.13422931  0.44363778  0.27813440    -0.55400
O150        O  0.07843614  0.47235884  0.22567343    -0.74800
C151        C  0.04165445  0.46143155  0.20923171     0.97600
O152        O  0.35345065  0.47059877  0.24400800    -0.63600
O153        O  0.41334113  0.42377028  0.07000715    -0.58400
O154        O  0.38978804  0.42744707  0.28485451    -0.95100
O155        O  0.41426273  0.41061299  0.33486371    -0.93500
O156        O  0.31949677  0.48533292  0.07002794    -0.93800
O157        O  0.28353276  0.02343210  0.01477374    -0.92600
C158        C  0.38989389  0.40595803  0.30924451     1.16400
H159        H  0.43541289  0.99705944  0.07862070     0.32400
H160        H  0.36957870  0.04582033  0.29747440     0.43200
H161        H  0.01180866  0.43614267  0.28238664     0.36800
H162        H  0.08686951  0.06113146  0.31041025     0.33200
H163        H  0.28730624  0.07647970  0.05773271     0.25000
H164        H  0.02638981  0.12362460  0.24740371     0.31000
H165        H  0.11440115  0.03829712  0.22491746     0.36900
H166        H  0.33080597  0.98810247  0.09279249     0.31300
H167        H  0.43047806  0.40135635  0.07156204     0.30200
H168        H  0.01448129  0.38442887  0.02209750     0.31900
H169        H  0.16524192  0.44733377  0.25855321     0.30900
H170        H  0.28717423  0.00273085  0.33287736     0.34800
H171        H  0.36542362  0.45050352  0.22921920     0.27600
H172        H  0.08620717  0.07481681  0.08615894     0.31800
H173        H  0.16065402  0.01610195  0.32197232     0.34700
H174        H  0.41899187  0.43618025  0.09108325     0.27300
H175        H  0.32305300  0.46253091  0.26228495     0.40100
H176        H  0.42198081  0.12878321  0.33108293     0.30200
H177        H  0.34078193  0.09734988  0.04391162     0.37800
H178        H  0.11134380  0.42607521  0.26952293     0.29700
H179        H  0.07501869  0.09951282  0.25119683     0.29700
H180        H  0.12842248  0.06337400  0.05275549     0.30000
C181        C  0.24791303  0.03655200  0.13337082    -0.10200
C182        C  0.26327654  0.03678248  0.16591751     0.06000
C183        C  0.24022760  0.01337683  0.19095524    -0.03900
C184        C  0.20303898  0.48931384  0.18298337    -0.08400
C185        C  0.18786223  0.48901827  0.15038522     0.05100
C186        C  0.21084791  0.01241173  0.12536280    -0.03400
Br187      Br  0.19564359  0.01002329  0.07953747    -0.03100
H188        H  0.26514973  0.05498175  0.11420357     0.09000
H189        H  0.18583140  0.47086554  0.20215028     0.07100
Br190      Br  0.25595347  0.01541091  0.23668071    -0.03500
C191        C  0.47090415  0.22926245  0.31625707    -0.10200
C192        C  0.01448602  0.23979951  0.33238697     0.06000
C193        C  0.01716188  0.27455477  0.00814781    -0.03900
C194        C  0.47614482  0.29644960  0.33558434    -0.08400
C195        C  0.43249876  0.28589857  0.31941310     0.05100
C196        C  0.42979575  0.25132770  0.31054830    -0.03400
Br197      Br  0.37281515  0.23086445  0.29069278    -0.03100
H198        H  0.46857068  0.20337692  0.30729806     0.09000
H199        H  0.47798588  0.32248997  0.01151735     0.07100
Br200      Br  0.07392302  0.29476987  0.02840838    -0.03500
C201        C  0.08245091  0.15435900  0.34265854     0.85500
C202        C  0.03679147  0.18056317  0.34440282    -0.54800
C203        C  0.05384986  0.21332465  0.33977878     0.08400
C204        C  0.11709167  0.21688710  0.67023497     0.19300
C205        C  0.12357744  0.16174223  0.64199676    -0.55500
C206        C  0.14202115  0.19435266  0.63915506     0.08500
C207        C  0.11218211  0.16525700  0.37168283    -0.55000
C208        C  0.12971753  0.19847745  0.36907348     0.09100
H209        H  0.49376958  0.17312391  0.34804613     0.13600
H210        H  0.13388787  0.24280389  0.66693587    -0.00700
H211        H  0.13266229  0.14363730  0.62064351     0.13900
H212        H  0.11719405  0.14883099  0.39281283     0.13700
C213        C  0.36391605  0.37110756  0.64208871     0.85500
C214        C  0.32332696  0.36400140  0.34271439    -0.54800
C215        C  0.30526303  0.33133684  0.34580992     0.08400
C216        C  0.32973056  0.30848176  0.64823692     0.19300
C217        C  0.40967734  0.34491503  0.64056235    -0.55500
C218        C  0.39273515  0.31214799  0.64539437     0.08500
C219        C  0.33407202  0.35982676  0.61317378    -0.55000
C220        C  0.31649203  0.32658483  0.61612344     0.09100
H221        H  0.31419292  0.38223103  0.36395102     0.13600
H222        H  0.31301728  0.28255971  0.65183369    -0.00700
H223        H  0.45270816  0.35239496  0.63713871     0.13900
H224        H  0.32887609  0.37604841  0.59192911     0.13700
Zr225      Zr  0.17579188  0.28835519  0.44225342     2.17500
O226        O  0.07992509  0.29580784  0.43710676    -0.52400
O227        O  0.23218620  0.31206817  0.38991535    -0.75600
O228        O  0.14370032  0.34750219  0.44915050    -0.82300
O229        O  0.17902194  0.19520628  0.41425359    -0.84100
O230        O  0.16499023  0.36440139  0.50060169    -0.79700
O231        O  0.15336846  0.24750049  0.39930279    -0.91400
O232        O  0.32136723  0.30869364  0.39715173    -0.77300
O233        O  0.24782468  0.31698047  0.46383263    -0.86800
O234        O  0.25535560  0.25298885  0.42932879    -0.86500
O235        O  0.14369489  0.29488531  0.50366229    -0.73300
O236        O  0.15158259  0.23580146  0.47165277    -0.85400
Zr237      Zr  0.27269501  0.23611531  0.54219256     2.26400
Zr238      Zr  0.21655101  0.32256980  0.52481264     2.06300
Zr239      Zr  0.23195954  0.20146254  0.45943884     2.10000
Zr240      Zr  0.32659982  0.28143338  0.45103188     1.78800
O241        O  0.17821548  0.14943302  0.46928546    -0.94200
O242        O  0.37776137  0.33427091  0.45157189    -0.42000
O243        O  0.30434543  0.22933002  0.48079882    -0.78600
O244        O  0.29749627  0.28842131  0.51219677    -0.97300
O245        O  0.19271335  0.27105278  0.55489646    -0.90600
O246        O  0.20092035  0.20742958  0.52030544    -0.93500
C247        C  0.28435034  0.31673504  0.37994993     1.00300
C248        C  0.15603739  0.21498698  0.39569677     1.13200
C249        C  0.14362619  0.36934437  0.47381966     1.04000
O250        O  0.26896522  0.37522718  0.51953466    -0.95600
O251        O  0.26564958  0.32941060  0.57169939    -0.91400
O252        O  0.29400118  0.27735395  0.58546473    -0.84500
C253        C  0.28979655  0.30980083  0.58975871     1.10600
O254        O  0.03111059  0.24964938  0.51768144    -0.97600
Zr255      Zr  0.12161482  0.24257673  0.53286131     1.88900
O256        O  0.21571704  0.21244337  0.59452204    -0.74200
O257        O  0.14981621  0.34460488  0.57365610    -0.53500
O258        O  0.06460730  0.27946266  0.57509315    -0.98200
O259        O  0.07027358  0.18952439  0.53389492    -0.55400
O260        O  0.12643395  0.21775280  0.58799653    -0.74800
C261        C  0.16334398  0.20901124  0.60499232     0.97600
O262        O  0.36812630  0.22870315  0.54836696    -0.63600
O263        O  0.29667804  0.17744061  0.41055538    -0.58400
O264        O  0.30651752  0.17728235  0.53458516    -0.95100
O265        O  0.28865135  0.16143080  0.48194036    -0.93500
O266        O  0.38257985  0.24513296  0.40772359    -0.93800
O267        O  0.41919647  0.27456549  0.46280044    -0.92600
C268        C  0.30900014  0.15613653  0.50905595     1.16400
H269        H  0.26586076  0.24863035  0.40474102     0.32400
H270        H  0.32751076  0.29920237  0.52070432     0.43200
H271        H  0.19374238  0.18549779  0.53087967     0.36800
H272        H  0.11094158  0.30871115  0.50809832     0.33200
H273        H  0.40423773  0.33426736  0.42923466     0.25000
H274        H  0.15891067  0.36899184  0.57479567     0.31000
H275        H  0.04359696  0.26391165  0.59230740     0.36900
H276        H  0.41140657  0.26031835  0.39522372     0.31300
H277        H  0.28530862  0.15345909  0.40922167     0.30200
H278        H  0.19646137  0.13343807  0.45113884     0.31900
H279        H  0.05086977  0.18714821  0.55821647     0.30900
H280        H  0.41944085  0.25153619  0.47244406     0.34800
H281        H  0.38682917  0.21763450  0.52658670     0.27600
H282        H  0.06177149  0.30719021  0.45883708     0.31800
H283        H  0.00395229  0.24287332  0.53837745     0.34700
H284        H  0.28731570  0.18788870  0.38966234     0.27300
H285        H  0.38383397  0.25186947  0.54694208     0.40100
H286        H  0.27802378  0.37954132  0.49434552     0.30200
H287        H  0.35100603  0.35222090  0.44907495     0.37800
H288        H  0.09838501  0.17140748  0.53056173     0.29700
H289        H  0.11410227  0.34410135  0.56577153     0.29700
H290        H  0.06413656  0.27266108  0.43903164     0.30000
C291        C  0.33245018  0.12094836  0.50983394     0.85500
C292        C  0.37423216  0.11217111  0.47654099    -0.54800
C293        C  0.38958454  0.07892542  0.47362436     0.08400
C294        C  0.36304014  0.05756151  0.50492167     0.19300
C295        C  0.28529336  0.09571109  0.51013026    -0.55500
C296        C  0.30120209  0.06295716  0.50707857     0.08500
C297        C  0.36046727  0.10980915  0.53955495    -0.55000
C298        C  0.37659233  0.07627360  0.53708039     0.09100
H299        H  0.38523359  0.12974216  0.45526315     0.13600
H300        H  0.37554818  0.03050224  0.50256199    -0.00700
H301        H  0.24292909  0.10323208  0.51038685     0.13900
H302        H  0.36633587  0.12656648  0.56065380     0.13700
C303        C  0.12032099  0.40446707  0.47271584     0.85500
C304        C  0.16684981  0.42999370  0.47317762    -0.54800
C305        C  0.15028398  0.46263071  0.47614026     0.08400
C306        C  0.08860793  0.46760168  0.47719270     0.19300
C307        C  0.07726139  0.41298762  0.50547279    -0.55500
C308        C  0.06119154  0.44611092  0.50821920     0.08500
C309        C  0.09351649  0.41530214  0.44242589    -0.55000
C310        C  0.07699014  0.44871363  0.44457258     0.09100
H311        H  0.20917815  0.42276708  0.47341476     0.13600
H312        H  0.07552612  0.99459780  0.47933207    -0.00700
H313        H  0.06605110  0.39539207  0.52671353     0.13900
H314        H  0.08865493  0.39841939  0.42120661     0.13700
Zr315      Zr  0.02224164  0.03948589  0.37609466     2.17500
O316        O  0.09843500  0.05420702  0.40468329    -0.52400
O317        O  0.46186625  0.06262215  0.42758818    -0.75600
O318        O  0.05909585  0.09761585  0.36559516    -0.82300
O319        O  0.02579258  0.44458106  0.39996425    -0.84100
O320        O  0.03200590  0.11520207  0.64977015    -0.79700
O321        O  0.05296707  0.99716594  0.41422644    -0.91400
O322        O  0.37297148  0.05226620  0.42298476    -0.77300
O323        O  0.44808469  0.06580511  0.35545571    -0.86800
O324        O  0.44565972  0.00170974  0.38738393    -0.86500
O325        O  0.05420183  0.04680520  0.64790862    -0.73300
O326        O  0.05100578  0.48812763  0.34419034    -0.85400
Zr327      Zr  0.42875622  0.48487385  0.60627935     2.26400
Zr328      Zr  0.47861937  0.07242938  0.62766730     2.06300
Zr329      Zr  0.47331142  0.45130637  0.35470465     2.10000
Zr330      Zr  0.37231509  0.02763029  0.36626153     1.78800
O331        O  0.03274252  0.40225212  0.33918406    -0.94200
O332        O  0.31803092  0.07939668  0.36980750    -0.42000
O333        O  0.39814713  0.47662329  0.33407461    -0.78600
O334        O  0.40004975  0.03602118  0.63868994    -0.97300
O335        O  0.50621774  0.02187514  0.59513448    -0.90600
O336        O  0.50231988  0.45786728  0.62715601    -0.93500
C337        C  0.40974405  0.06353474  0.43924315     1.00300
C338        C  0.05022374  0.46467138  0.41796013     1.13200
C339        C  0.05693814  0.11966248  0.34202458     1.04000
O340        O  0.41771728  0.12119060  0.64035146    -0.95600
O341        O  0.42969877  0.07968349  0.58076285    -0.91400
O342        O  0.39938664  0.02752299  0.56762948    -0.84500
C343        C  0.40388779  0.05991453  0.56326718     1.10600
O344        O  0.16652216  0.00024054  0.63580198    -0.97600
Zr345      Zr  0.07894581  0.49530035  0.61645734     1.88900
O346        O  0.48872551  0.46244349  0.55424927    -0.74200
O347        O  0.03835878  0.09985931  0.57925668    -0.53500
O348        O  0.13172450  0.03675797  0.57847653    -0.98200
O349        O  0.13363027  0.44353455  0.61190775    -0.55400
O350        O  0.07764888  0.47171744  0.55938816    -0.74800
C351        C  0.04086237  0.46127610  0.54272159     0.97600
O352        O  0.35211536  0.47051970  0.57796515    -0.63600
O353        O  0.41389521  0.42302975  0.40275302    -0.58400
O354        O  0.38922643  0.42744627  0.61821765    -0.95100
O355        O  0.41431061  0.41048951  0.66799642    -0.93500
O356        O  0.31963357  0.48500224  0.40293179    -0.93800
O357        O  0.28376016  0.02303075  0.34816788    -0.92600
C358        C  0.38971349  0.40585796  0.64247645     1.16400
H359        H  0.43566805  0.99672227  0.41177028     0.32400
H360        H  0.36926199  0.04619590  0.63080445     0.43200
H361        H  0.01088104  0.43613109  0.61586921     0.36800
H362        H  0.08657121  0.06102962  0.64363365     0.33200
H363        H  0.28821778  0.07671321  0.39029231     0.25000
H364        H  0.02789819  0.12408551  0.58153226     0.31000
H365        H  0.11341662  0.03794719  0.55821169     0.36900
H366        H  0.33174432  0.98705774  0.42540276     0.31300
H367        H  0.43203482  0.40105093  0.40489535     0.30200
H368        H  0.01508291  0.38398453  0.35446785     0.31900
H369        H  0.16462374  0.44713852  0.59229174     0.30900
H370        H  0.28793769  0.00503749  0.66448864     0.34800
H371        H  0.36368509  0.45024857  0.56335299     0.27600
H372        H  0.08599446  0.07394737  0.41990687     0.31800
H373        H  0.15920827  0.01591605  0.65599956     0.34700
H374        H  0.41801610  0.43595985  0.42383945     0.27300
H375        H  0.32176824  0.46274645  0.59644072     0.40100
H376        H  0.42157536  0.12900354  0.66379366     0.30200
H377        H  0.34208774  0.09729842  0.37670819     0.37800
H378        H  0.11074212  0.42589255  0.60342357     0.29700
H379        H  0.07574013  0.09915597  0.58482231     0.29700
H380        H  0.12835222  0.06287069  0.38643666     0.30000
C381        C  0.24850434  0.03615415  0.46668367    -0.10200
C382        C  0.26342612  0.03668960  0.49935248     0.06000
C383        C  0.23963522  0.01376010  0.52468297    -0.03900
C384        C  0.20214682  0.48979130  0.51686907    -0.08400
C385        C  0.18729760  0.48921689  0.48416815     0.05100
C386        C  0.21101437  0.01221229  0.45887153    -0.03400
Br387      Br  0.19593133  0.00959595  0.41302849    -0.03100
H388        H  0.26624051  0.05426964  0.44729987     0.09000
H389        H  0.18453308  0.47161421  0.53621635     0.07100
Br390      Br  0.25512473  0.01619386  0.57047893    -0.03500
C391        C  0.47073725  0.22916617  0.64970532    -0.10200
C392        C  0.01453753  0.23976486  0.66577969     0.06000
C393        C  0.01712818  0.27435292  0.34136606    -0.03900
C394        C  0.47575714  0.29631525  0.66920535    -0.08400
C395        C  0.43211546  0.28574975  0.65301093     0.05100
C396        C  0.42950412  0.25118645  0.64409207    -0.03400
Br397      Br  0.37253640  0.23069878  0.62421655    -0.03100
H398        H  0.46848589  0.20329948  0.64067412     0.09000
H399        H  0.47844485  0.32234319  0.34450181     0.07100
Br400      Br  0.07374943  0.29463130  0.36171031    -0.03500
C401        C  0.08259976  0.15435988  0.67580675     0.85500
C402        C  0.03698315  0.18057421  0.67765711    -0.54800
C403        C  0.05404271  0.21332513  0.67305652     0.08400
C404        C  0.11708809  0.21695050  0.00361705     0.19300
C405        C  0.12322108  0.16178395  0.97540487    -0.55500
C406        C  0.14185627  0.19434845  0.97252714     0.08500
C407        C  0.11239061  0.16516707  0.70483275    -0.55000
C408        C  0.12995116  0.19838562  0.70229017     0.09100
H409        H  0.49380637  0.17311305  0.68137051     0.13600
H410        H  0.13390612  0.24287824  0.00033461    -0.00700
H411        H  0.13214858  0.14365902  0.95405895     0.13900
H412        H  0.11733380  0.14870057  0.72594646     0.13700
C413        C  0.36375087  0.37130703  0.97553976     0.85500
C414        C  0.32303941  0.36392329  0.67596362    -0.54800
C415        C  0.30489490  0.33126505  0.67907261     0.08400
C416        C  0.32983965  0.30862706  0.98167758     0.19300
C417        C  0.40965441  0.34518206  0.97385928    -0.55500
C418        C  0.39285543  0.31238970  0.97867658     0.08500
C419        C  0.33374974  0.35999559  0.94669221    -0.55000
C420        C  0.31635812  0.32670748  0.94959924     0.09100
H421        H  0.31394340  0.38216776  0.69718813     0.13600
H422        H  0.31326497  0.28267489  0.98529821    -0.00700
H423        H  0.45267166  0.35271256  0.97037672     0.13900
H424        H  0.32843056  0.37621745  0.92547403     0.13700
Zr425      Zr  0.17534149  0.28844307  0.77562450     2.17500
O426        O  0.07953052  0.29551255  0.77011773    -0.52400
O427        O  0.23179174  0.31286393  0.72364775    -0.75600
O428        O  0.14208418  0.34735157  0.78281254    -0.82300
O429        O  0.17877831  0.19508843  0.74770024    -0.84100
O430        O  0.16523437  0.36455387  0.83364842    -0.79700
O431        O  0.15344139  0.24740085  0.73261998    -0.91400
O432        O  0.32122000  0.30769586  0.72989775    -0.77300
O433        O  0.24772203  0.31694942  0.79697725    -0.86800
O434        O  0.25477839  0.25292938  0.76263033    -0.86500
O435        O  0.14359182  0.29517020  0.83705131    -0.73300
O436        O  0.15110766  0.23604743  0.80529749    -0.85400
Zr437      Zr  0.27264840  0.23620865  0.87555680     2.26400
Zr438      Zr  0.21679839  0.32273402  0.85796098     2.06300
Zr439      Zr  0.23131003  0.20152941  0.79301806     2.10000
Zr440      Zr  0.32633817  0.28125015  0.78416213     1.78800
O441        O  0.17639622  0.15000221  0.80311300    -0.94200
O442        O  0.37731333  0.33428421  0.78351168    -0.42000
O443        O  0.30413319  0.22922177  0.81410853    -0.78600
O444        O  0.29747932  0.28838782  0.84532400    -0.97300
O445        O  0.19289655  0.27135738  0.88832972    -0.90600
O446        O  0.20053358  0.20768927  0.85387313    -0.93500
C447        C  0.28405800  0.31664556  0.71320024     1.00300
C448        C  0.15604930  0.21487910  0.72903296     1.13200
C449        C  0.14289396  0.36935429  0.80722426     1.04000
O450        O  0.27016258  0.37501053  0.85228723    -0.95600
O451        O  0.26587400  0.32942657  0.90494113    -0.91400
O452        O  0.29403252  0.27738833  0.91889044    -0.84500
C453        C  0.28986987  0.30984764  0.92312666     1.10600
O454        O  0.03040597  0.25004207  0.85210045    -0.97600
Zr455      Zr  0.12144460  0.24302836  0.86651518     1.88900
O456        O  0.21547321  0.21260832  0.92791186    -0.74200
O457        O  0.15034303  0.34561525  0.90645824    -0.53500
O458        O  0.06615544  0.28064971  0.90885793    -0.98200
O459        O  0.06933194  0.19028420  0.86765415    -0.55400
O460        O  0.12616196  0.21752931  0.92131049    -0.74800
C461        C  0.16311743  0.20895164  0.93833065     0.97600
O462        O  0.36818153  0.22909731  0.88165648    -0.63600
O463        O  0.29500748  0.17639926  0.74430770    -0.58400
O464        O  0.30637058  0.17732865  0.86805578    -0.95100
O465        O  0.28787729  0.16142277  0.81558532    -0.93500
O466        O  0.38296294  0.24436524  0.74176382    -0.93800
O467        O  0.41882484  0.27586907  0.79649742    -0.92600
C468        C  0.30849535  0.15612260  0.84259920     1.16400
H469        H  0.26514967  0.24849868  0.73804773     0.32400
H470        H  0.32755968  0.29915474  0.85377335     0.43200
H471        H  0.19324666  0.18578011  0.86447920     0.36800
H472        H  0.11088931  0.30904132  0.84152875     0.33200
H473        H  0.40365782  0.33395311  0.76111915     0.25000
H474        H  0.16025806  0.36987922  0.90753173     0.31000
H475        H  0.04498440  0.26538154  0.92629918     0.36900
H476        H  0.40895972  0.25988927  0.72728040     0.31300
H477        H  0.28088982  0.15314421  0.74199044     0.30200
H478        H  0.19531101  0.13348203  0.78575142     0.31900
H479        H  0.04979592  0.18802280  0.89196129     0.30900
H480        H  0.41988628  0.25285576  0.80605444     0.34800
H481        H  0.38693017  0.21824256  0.85976916     0.27600
H482        H  0.06090035  0.30621632  0.79211403     0.31800
H483        H  0.00359081  0.24450791  0.87339939     0.34700
H484        H  0.28806362  0.18822601  0.72350459     0.27300
H485        H  0.38366991  0.25231886  0.88043078     0.40100
H486        H  0.28097073  0.37847133  0.82701877     0.30200
H487        H  0.35045499  0.35207436  0.78073380     0.37800
H488        H  0.09722153  0.17203760  0.86442000     0.29700
H489        H  0.11476113  0.34557484  0.89840550     0.29700
H490        H  0.06420343  0.27225024  0.77128445     0.30000
C491        C  0.33212032  0.12093722  0.84326406     0.85500
C492        C  0.37411802  0.11237929  0.81000425    -0.54800
C493        C  0.38987646  0.07920115  0.80702036     0.08400
C494        C  0.36335997  0.05766145  0.83819359     0.19300
C495        C  0.28523434  0.09551553  0.84334316    -0.55500
C496        C  0.30150038  0.06280938  0.84018646     0.08500
C497        C  0.36007494  0.10980777  0.87302096    -0.55000
C498        C  0.37647398  0.07632739  0.87049564     0.09100
H499        H  0.38494399  0.13001831  0.78877077     0.13600
H500        H  0.37616811  0.03065614  0.83576425    -0.00700
H501        H  0.24281906  0.10288780  0.84355292     0.13900
H502        H  0.36566973  0.12653340  0.89420309     0.13700
C503        C  0.11967783  0.40452554  0.80615909     0.85500
C504        C  0.16647438  0.42989381  0.80642370    -0.54800
C505        C  0.15024787  0.46257602  0.80941130     0.08400
C506        C  0.08857457  0.46779084  0.81060802     0.19300
C507        C  0.07692157  0.41321250  0.83899743    -0.55500
C508        C  0.06115487  0.44639469  0.84168982     0.08500
C509        C  0.09267254  0.41545167  0.77596950    -0.55000
C510        C  0.07644918  0.44893174  0.77809808     0.09100
H511        H  0.20877985  0.42252277  0.80655198     0.13600
H512        H  0.07580644  0.99480206  0.81276713    -0.00700
H513        H  0.06566359  0.39567136  0.86028145     0.13900
H514        H  0.08746579  0.39856956  0.75482363     0.13700
Zr515      Zr  0.02204748  0.03962059  0.70937720     2.17500
O516        O  0.09940831  0.05416476  0.73696374    -0.52400
O517        O  0.46219723  0.06289177  0.76097733    -0.75600
O518        O  0.05884861  0.09773205  0.69881180    -0.82300
O519        O  0.02508748  0.44489643  0.73353534    -0.84100
O520        O  0.03164657  0.11531492  0.98322383    -0.79700
O521        O  0.05226618  0.99743974  0.74786022    -0.91400
O522        O  0.37328203  0.05276872  0.75631154    -0.77300
O523        O  0.44809061  0.06611452  0.68869864    -0.86800
O524        O  0.44527748  0.00196173  0.72075576    -0.86500
O525        O  0.05439134  0.04701529  0.98135952    -0.73300
O526        O  0.05052571  0.48813295  0.67761888    -0.85400
Zr527      Zr  0.42877618  0.48495057  0.93970944     2.26400
Zr528      Zr  0.47857001  0.07244121  0.96111162     2.06300
Zr529      Zr  0.47262835  0.45144472  0.68818138     2.10000
Zr530      Zr  0.37210936  0.02812303  0.69967971     1.78800
O531        O  0.03280674  0.40268259  0.67282514    -0.94200
O532        O  0.31842526  0.08017950  0.70375221    -0.42000
O533        O  0.39752037  0.47695852  0.66760049    -0.78600
O534        O  0.40004175  0.03600768  0.97216529    -0.97300
O535        O  0.50627246  0.02199863  0.92848696    -0.90600
O536        O  0.50250102  0.45810456  0.96057316    -0.93500
C537        C  0.41007737  0.06391657  0.77260182     1.00300
C538        C  0.04956767  0.46495769  0.75154436     1.13200
C539        C  0.05693140  0.11972206  0.67516069     1.04000
O540        O  0.41860227  0.12159395  0.97381101    -0.95600
O541        O  0.42914746  0.07977686  0.91443071    -0.91400
O542        O  0.39944568  0.02756669  0.90099744    -0.84500
C543        C  0.40366336  0.05998231  0.89676086     1.10600
O544        O  0.16701161  0.00011097  0.96891142    -0.97600
Zr545      Zr  0.07915550  0.49562428  0.94973482     1.88900
O546        O  0.48880183  0.46215706  0.88796422    -0.74200
O547        O  0.03824590  0.09907855  0.91221324    -0.53500
O548        O  0.13209857  0.03699895  0.91166892    -0.98200
O549        O  0.13385875  0.44383649  0.94471875    -0.55400
O550        O  0.07768867  0.47265972  0.89247290    -0.74800
C551        C  0.04090182  0.46163216  0.87611913     0.97600
O552        O  0.35314406  0.47081200  0.91046577    -0.63600
O553        O  0.41316865  0.42276767  0.73590591    -0.58400
O554        O  0.38875655  0.42769136  0.95173056    -0.95100
O555        O  0.41417374  0.41071011  0.00140287    -0.93500
O556        O  0.31927066  0.48605942  0.73687948    -0.93800
O557        O  0.28333831  0.02369542  0.68185025    -0.92600
C558        C  0.38943087  0.40608314  0.97594072     1.16400
H559        H  0.43529740  0.99700930  0.74515021     0.32400
H560        H  0.36924778  0.04617193  0.96428006     0.43200
H561        H  0.01117416  0.43640853  0.94923850     0.36800
H562        H  0.08671516  0.06128074  0.97708507     0.33200
H563        H  0.28923815  0.07774022  0.72460723     0.25000
H564        H  0.02750591  0.12326803  0.91394224     0.31000
H565        H  0.11446406  0.03771866  0.89109001     0.36900
H566        H  0.33201128  0.98799371  0.75922340     0.31300
H567        H  0.43130816  0.40074077  0.73781547     0.30200
H568        H  0.01414691  0.38399763  0.68707961     0.31900
H569        H  0.16486546  0.44755252  0.92514061     0.30900
H570        H  0.28859609  0.00513184  0.99701567     0.34800
H571        H  0.36530528  0.45074459  0.89567815     0.27600
H572        H  0.08743550  0.07383743  0.75238986     0.31800
H573        H  0.15951524  0.01486020  0.98982093     0.34700
H574        H  0.41733255  0.43548829  0.75710749     0.27300
H575        H  0.32257993  0.46269624  0.92860227     0.40100
H576        H  0.42067351  0.12836637  0.99785739     0.30200
H577        H  0.34308768  0.09800243  0.71013470     0.37800
H578        H  0.11096777  0.42629068  0.93608670     0.29700
H579        H  0.07554866  0.09877586  0.91792061     0.29700
H580        H  0.12892085  0.06286370  0.71847664     0.30000
C581        C  0.24906503  0.03577741  0.79971430    -0.10200
C582        C  0.26404998  0.03634916  0.83237268     0.06000
C583        C  0.24041628  0.01333663  0.85767258    -0.03900
C584        C  0.20275971  0.48947375  0.84994951    -0.08400
C585        C  0.18767617  0.48897268  0.81732187     0.05100
C586        C  0.21141495  0.01188494  0.79197622    -0.03400
Br587      Br  0.19558176  0.00941291  0.74630712    -0.03100
H588        H  0.26668424  0.05391341  0.78033799     0.09000
H589        H  0.18508095  0.47134518  0.86932423     0.07100
Br590      Br  0.25582675  0.01576027  0.90346912    -0.03500
C591        C  0.47143153  0.22956012  0.98251253    -0.10200
C592        C  0.01479545  0.24004896  0.99893670     0.06000
C593        C  0.01707504  0.27429395  0.67483011    -0.03900
C594        C  0.47591213  0.29662018  0.00247021    -0.08400
C595        C  0.43240117  0.28604577  0.98616653     0.05100
C596        C  0.43004395  0.25152456  0.97703756    -0.03400
Br597      Br  0.37290555  0.23094945  0.95740354    -0.03100
H598        H  0.46939270  0.20372301  0.97334436     0.09000
H599        H  0.47801650  0.32220599  0.67814013     0.07100
Br600      Br  0.07427919  0.29460905  0.69461486    -0.03500
C601        C  0.08220740  0.65450496  0.00922516     0.85500
C602        C  0.03671295  0.68083212  0.01112240    -0.54800
C603        C  0.05399900  0.71355216  0.00648875     0.08400
C604        C  0.11694331  0.71690612  0.33699783     0.19300
C605        C  0.12349280  0.66170692  0.30885823    -0.55500
C606        C  0.14188786  0.69432622  0.30596668     0.08500
C607        C  0.11218485  0.66521089  0.03819229    -0.55000
C608        C  0.12992200  0.69838601  0.03564694     0.09100
H609        H  0.49362127  0.67351310  0.01453134     0.13600
H610        H  0.13364440  0.74284930  0.33365559    -0.00700
H611        H  0.13261543  0.64356842  0.28753684     0.13900
H612        H  0.11710057  0.64871381  0.05928799     0.13700
C613        C  0.36416989  0.87125910  0.30878501     0.85500
C614        C  0.32299273  0.86405665  0.00949068    -0.54800
C615        C  0.30500240  0.83137178  0.01258998     0.08400
C616        C  0.33010400  0.80862420  0.31488459     0.19300
C617        C  0.40999736  0.84511068  0.30713790    -0.55500
C618        C  0.39312522  0.81232975  0.31191301     0.08500
C619        C  0.33427274  0.86001159  0.27988883    -0.55000
C620        C  0.31675567  0.82675710  0.28280250     0.09100
H621        H  0.31389782  0.88227870  0.03073688     0.13600
H622        H  0.31345508  0.78268963  0.31847626    -0.00700
H623        H  0.45302492  0.85262307  0.30363287     0.13900
H624        H  0.32906700  0.87625090  0.25865922     0.13700
Zr625      Zr  0.17571041  0.78820474  0.10897530     2.17500
O626        O  0.07981708  0.79539449  0.10378964    -0.52400
O627        O  0.23197602  0.81243607  0.05689260    -0.75600
O628        O  0.14305672  0.84719972  0.11579202    -0.82300
O629        O  0.17860413  0.69499388  0.08118850    -0.84100
O630        O  0.16574802  0.86438660  0.16675791    -0.79700
O631        O  0.15368629  0.74733044  0.06592281    -0.91400
O632        O  0.32128805  0.80814330  0.06362793    -0.77300
O633        O  0.24804246  0.81672531  0.13033969    -0.86800
O634        O  0.25509725  0.75270498  0.09603784    -0.86500
O635        O  0.14398623  0.79500128  0.17036358    -0.73300
O636        O  0.15124293  0.73585346  0.13869775    -0.85400
Zr637      Zr  0.27279412  0.73618029  0.20906103     2.26400
Zr638      Zr  0.21706756  0.82262081  0.19129612     2.06300
Zr639      Zr  0.23144412  0.70136969  0.12645291     2.10000
Zr640      Zr  0.32662720  0.78103178  0.11756470     1.78800
O641        O  0.17739231  0.64945603  0.13611531    -0.94200
O642        O  0.37760445  0.83404164  0.11710723    -0.42000
O643        O  0.30416436  0.72909687  0.14763869    -0.78600
O644        O  0.29776329  0.78826859  0.17872803    -0.97300
O645        O  0.19306545  0.77131241  0.22172925    -0.90600
O646        O  0.20073969  0.70761861  0.18733099    -0.93500
C647        C  0.28418066  0.81670637  0.04670885     1.00300
C648        C  0.15607846  0.71480831  0.06241427     1.13200
C649        C  0.14367786  0.86919169  0.14022882     1.04000
O650        O  0.27005372  0.87504787  0.18628727    -0.95600
O651        O  0.26632213  0.82953599  0.23813890    -0.91400
O652        O  0.29413865  0.77747704  0.25226489    -0.84500
C653        C  0.29019267  0.80994817  0.25637863     1.10600
O654        O  0.03091028  0.75077226  0.18525750    -0.97600
Zr655      Zr  0.12163808  0.74293452  0.19991647     1.88900
O656        O  0.21554003  0.71271933  0.26146710    -0.74200
O657        O  0.14951234  0.84500843  0.23950065    -0.53500
O658        O  0.06673625  0.78040816  0.24258958    -0.98200
O659        O  0.06979743  0.69006358  0.20104153    -0.55400
O660        O  0.12624378  0.71747758  0.25474150    -0.74800
C661        C  0.16318179  0.70897019  0.27180939     0.97600
O662        O  0.36838704  0.72918768  0.21507299    -0.63600
O663        O  0.29568682  0.67712388  0.07748611    -0.58400
O664        O  0.30685132  0.67739916  0.20161735    -0.95100
O665        O  0.28793874  0.66141128  0.14926714    -0.93500
O666        O  0.38201196  0.74396128  0.07472564    -0.93800
O667        O  0.41931463  0.77517331  0.12951657    -0.92600
C668        C  0.30879254  0.65616931  0.17620224     1.16400
H669        H  0.26549735  0.74826902  0.07145791     0.32400
H670        H  0.32786240  0.79903510  0.18715823     0.43200
H671        H  0.19347458  0.68572000  0.19796293     0.36800
H672        H  0.11131244  0.80889685  0.17479140     0.33200
H673        H  0.40289064  0.83423739  0.09431222     0.25000
H674        H  0.15980247  0.86914216  0.24126612     0.31000
H675        H  0.04312923  0.76508457  0.25881960     0.36900
H676        H  0.41032012  0.75901447  0.06149237     0.31300
H677        H  0.28418293  0.65315527  0.07629007     0.30200
H678        H  0.19546476  0.63352148  0.11785121     0.31900
H679        H  0.04759381  0.68889232  0.22478493     0.30900
H680        H  0.42110242  0.75158021  0.13746628     0.34800
H681        H  0.38721310  0.71864869  0.19303481     0.27600
H682        H  0.06142508  0.80623956  0.12576537     0.31800
H683        H  0.00385978  0.74375923  0.20590518     0.34700
H684        H  0.28617534  0.68750669  0.05660225     0.27300
H685        H  0.38368326  0.75245112  0.21416001     0.40100
H686        H  0.27869941  0.87965016  0.16114802     0.30200
H687        H  0.35031717  0.85191359  0.11540337     0.37800
H688        H  0.09739037  0.67181699  0.20007404     0.29700
H689        H  0.11440260  0.84553801  0.23090193     0.29700
H690        H  0.06438226  0.77215732  0.10513290     0.30000
C691        C  0.33228881  0.62097078  0.17683687     0.85500
C692        C  0.37412379  0.61234015  0.14351875    -0.54800
C693        C  0.38954279  0.57910521  0.14046148     0.08400
C694        C  0.36297198  0.55760194  0.17165857     0.19300
C695        C  0.28517120  0.59572537  0.17698625    -0.55500
C696        C  0.30111671  0.56298469  0.17377161     0.08500
C697        C  0.36026485  0.60970365  0.20652301    -0.55000
C698        C  0.37644797  0.57617996  0.20393047     0.09100
H699        H  0.38509545  0.63000337  0.12232005     0.13600
H700        H  0.37552297  0.53055284  0.16918101    -0.00700
H701        H  0.24280078  0.60324540  0.17726119     0.13900
H702        H  0.36608123  0.62638560  0.22768997     0.13700
C703        C  0.12042890  0.90433511  0.13912179     0.85500
C704        C  0.16714419  0.92978599  0.13937332    -0.54800
C705        C  0.15077271  0.96245930  0.14230977     0.08400
C706        C  0.08908025  0.96753889  0.14359129     0.19300
C707        C  0.07765644  0.91296543  0.17197818    -0.55500
C708        C  0.06184609  0.94613318  0.17473963     0.08500
C709        C  0.09337911  0.91519701  0.10892877    -0.55000
C710        C  0.07707608  0.94866218  0.11105832     0.09100
H711        H  0.20946041  0.92248331  0.13954449     0.13600
H712        H  0.07620447  0.49458860  0.14569788    -0.00700
H713        H  0.06645229  0.89539513  0.19324221     0.13900
H714        H  0.08827181  0.89830764  0.08776486     0.13700
Zr715      Zr  0.02209861  0.53970299  0.04280315     2.17500
O716        O  0.09856387  0.55493426  0.07102721    -0.52400
O717        O  0.46178586  0.56294835  0.09430695    -0.75600
O718        O  0.05872366  0.59783536  0.03214165    -0.82300
O719        O  0.02574350  0.94469229  0.06648850    -0.84100
O720        O  0.03194448  0.61513547  0.31672648    -0.79700
O721        O  0.05312756  0.49724611  0.08075581    -0.91400
O722        O  0.37285127  0.55254422  0.08980225    -0.77300
O723        O  0.44787003  0.56590338  0.02211366    -0.86800
O724        O  0.44530455  0.50205034  0.05425715    -0.86500
O725        O  0.05456981  0.54683076  0.31465542    -0.73300
O726        O  0.05060910  0.98830287  0.01094207    -0.85400
Zr727      Zr  0.42956080  0.98477517  0.27279966     2.26400
Zr728      Zr  0.47871113  0.57236723  0.29449074     2.06300
Zr729      Zr  0.47269301  0.95159985  0.02153332     2.10000
Zr730      Zr  0.37188250  0.52787376  0.03313409     1.78800
O731        O  0.03151692  0.90230775  0.00615675    -0.94200
O732        O  0.31693581  0.57938828  0.03720745    -0.42000
O733        O  0.39733058  0.97679716  0.00096355    -0.78600
O734        O  0.40040555  0.53575006  0.30537259    -0.97300
O735        O  0.50675931  0.52197230  0.26179294    -0.90600
O736        O  0.50319201  0.95785185  0.29367206    -0.93500
C737        C  0.40966939  0.56382898  0.10601536     1.00300
C738        C  0.05027855  0.96472147  0.08448440     1.13200
C739        C  0.05653924  0.61987730  0.00858434     1.04000
O740        O  0.41852218  0.62143017  0.30749530    -0.95600
O741        O  0.42902419  0.57960770  0.24791168    -0.91400
O742        O  0.40003621  0.52733164  0.23411835    -0.84500
C743        C  0.40383017  0.55978732  0.23009086     1.10600
O744        O  0.16726936  0.49991771  0.30237641    -0.97600
Zr745      Zr  0.07960808  0.99544876  0.28301553     1.88900
O746        O  0.48956328  0.96204877  0.22098128    -0.74200
O747        O  0.03804641  0.59932629  0.24562674    -0.53500
O748        O  0.13258071  0.53703305  0.24523787    -0.98200
O749        O  0.13437140  0.94369748  0.27822924    -0.55400
O750        O  0.07844952  0.97223567  0.22571495    -0.74800
C751        C  0.04166591  0.96135206  0.20925082     0.97600
O752        O  0.35343853  0.97064003  0.24400895    -0.63600
O753        O  0.41371060  0.92363520  0.06998457    -0.58400
O754        O  0.38986556  0.92744417  0.28478943    -0.95100
O755        O  0.41428678  0.91063993  0.33482327    -0.93500
O756        O  0.31948910  0.98541598  0.07007450    -0.93800
O757        O  0.28341610  0.52355989  0.01484617    -0.92600
C758        C  0.38995186  0.90597172  0.30919379     1.16400
H759        H  0.43536952  0.49708274  0.07865121     0.32400
H760        H  0.36953442  0.54582817  0.29749802     0.43200
H761        H  0.01180333  0.93614869  0.28238710     0.36800
H762        H  0.08686096  0.56112235  0.31042563     0.33200
H763        H  0.28749174  0.57660073  0.05786646     0.25000
H764        H  0.02667864  0.62340779  0.24725545     0.31000
H765        H  0.11418436  0.53845749  0.22502650     0.36900
H766        H  0.33077400  0.48801143  0.09275889     0.31300
H767        H  0.43126272  0.90138185  0.07170877     0.30200
H768        H  0.01439138  0.88439403  0.02210530     0.31900
H769        H  0.16506574  0.94724665  0.25841895     0.30900
H770        H  0.28740034  0.50273494  0.33265998     0.34800
H771        H  0.36540435  0.95056683  0.22918485     0.27600
H772        H  0.08629059  0.57483332  0.08605927     0.31800
H773        H  0.16067014  0.51654191  0.32177720     0.34700
H774        H  0.41897681  0.93625310  0.09102442     0.27300
H775        H  0.32306747  0.96254364  0.26228745     0.40100
H776        H  0.42212270  0.62886800  0.33110094     0.30200
H777        H  0.34099970  0.59738994  0.04390791     0.37800
H778        H  0.11129539  0.92601250  0.26999029     0.29700
H779        H  0.07529508  0.59944698  0.25142861     0.29700
H780        H  0.12845333  0.56338499  0.05263076     0.30000
C781        C  0.24800762  0.53652324  0.13335794    -0.10200
C782        C  0.26337471  0.53673590  0.16590243     0.06000
C783        C  0.24027283  0.51335984  0.19095308    -0.03900
C784        C  0.20305237  0.98929394  0.18297338    -0.08400
C785        C  0.18786677  0.98898679  0.15037757     0.05100
C786        C  0.21088159  0.51242216  0.12536253    -0.03400
Br787      Br  0.19561340  0.51006279  0.07955279    -0.03100
H788        H  0.26526177  0.55494830  0.11419224     0.09000
H789        H  0.18588724  0.97082947  0.20213240     0.07100
Br790      Br  0.25600339  0.51539481  0.23667862    -0.03500
C791        C  0.47098350  0.72929746  0.31619662    -0.10200
C792        C  0.01456312  0.73978698  0.33241385     0.06000
C793        C  0.01714377  0.77457332  0.00817974    -0.03900
C794        C  0.47624436  0.79647998  0.33554100    -0.08400
C795        C  0.43259658  0.78593640  0.31936750     0.05100
C796        C  0.42989655  0.75137378  0.31048725    -0.03400
Br797      Br  0.37294439  0.73094628  0.29059738    -0.03100
H798        H  0.46864812  0.70341684  0.30722345     0.09000
H799        H  0.47793720  0.82249414  0.01156191     0.07100
Br800      Br  0.07389665  0.79479112  0.02844616    -0.03500
C801        C  0.08253930  0.65435106  0.34268258     0.85500
C802        C  0.03687016  0.68055763  0.34446927    -0.54800
C803        C  0.05392227  0.71331885  0.33982648     0.08400
C804        C  0.11703890  0.71688717  0.67027666     0.19300
C805        C  0.12350051  0.66175336  0.64202236    -0.55500
C806        C  0.14193785  0.69436440  0.63918565     0.08500
C807        C  0.11234321  0.66524982  0.37167686    -0.55000
C808        C  0.12985855  0.69847721  0.36906392     0.09100
H809        H  0.49376006  0.67313852  0.34797803     0.13600
H810        H  0.13383170  0.74280353  0.66697574    -0.00700
H811        H  0.13257219  0.64365464  0.62066280     0.13900
H812        H  0.11739881  0.64882314  0.39279702     0.13700
C813        C  0.36397759  0.87108715  0.64207729     0.85500
C814        C  0.32342298  0.86402303  0.34269117    -0.54800
C815        C  0.30536021  0.83135918  0.34580148     0.08400
C816        C  0.32975214  0.80847331  0.64824384     0.19300
C817        C  0.40973029  0.84488471  0.64052585    -0.55500
C818        C  0.39276805  0.81212306  0.64537779     0.08500
C819        C  0.33407368  0.85982414  0.61318861    -0.55000
C820        C  0.31646441  0.82659101  0.61615042     0.09100
H821        H  0.31430291  0.88225724  0.36392433     0.13600
H822        H  0.31302216  0.78255523  0.65184505    -0.00700
H823        H  0.45276613  0.85235594  0.63709224     0.13900
H824        H  0.32885119  0.87605200  0.59195418     0.13700
Zr825      Zr  0.17580812  0.78839334  0.44226404     2.17500
O826        O  0.07996298  0.79586904  0.43708410    -0.52400
O827        O  0.23226268  0.81208897  0.38991717    -0.75600
O828        O  0.14370604  0.84753745  0.44914214    -0.82300
O829        O  0.17914480  0.69523391  0.41424767    -0.84100
O830        O  0.16496807  0.86442452  0.50060336    -0.79700
O831        O  0.15345617  0.74751934  0.39929881    -0.91400
O832        O  0.32142883  0.80875037  0.39718525    -0.77300
O833        O  0.24782320  0.81702047  0.46386219    -0.86800
O834        O  0.25535748  0.75302866  0.42937248    -0.86500
O835        O  0.14365757  0.79490935  0.50367890    -0.73300
O836        O  0.15157138  0.73584339  0.47167823    -0.85400
Zr837      Zr  0.27262935  0.73612922  0.54224139     2.26400
Zr838      Zr  0.21649957  0.82258950  0.52484615     2.06300
Zr839      Zr  0.23195235  0.70150587  0.45948355     2.10000
Zr840      Zr  0.32659778  0.78146714  0.45107245     1.78800
O841        O  0.17810535  0.64951160  0.46928816    -0.94200
O842        O  0.37780015  0.83426769  0.45178285    -0.42000
O843        O  0.30434458  0.72936337  0.48085372    -0.78600
O844        O  0.29745157  0.78843372  0.51224494    -0.97300
O845        O  0.19264211  0.77107453  0.55493669    -0.90600
O846        O  0.20086003  0.70745466  0.52034437    -0.93500
C847        C  0.28442973  0.81676634  0.37995804     1.00300
C848        C  0.15616098  0.71500543  0.39568627     1.13200
C849        C  0.14361407  0.86937430  0.47381782     1.04000
O850        O  0.26894797  0.87523268  0.51962967    -0.95600
O851        O  0.26549294  0.82943092  0.57178689    -0.91400
O852        O  0.29396749  0.77738024  0.58548675    -0.84500
C853        C  0.28970952  0.80982093  0.58980947     1.10600
O854        O  0.03109911  0.74955757  0.51759335    -0.97600
Zr855      Zr  0.12154852  0.74260127  0.53288993     1.88900
O856        O  0.21564760  0.71245306  0.59456505    -0.74200
O857        O  0.14968960  0.84463662  0.57364438    -0.53500
O858        O  0.06435072  0.77946225  0.57506224    -0.98200
O859        O  0.07027513  0.68950856  0.53406763    -0.55400
O860        O  0.12637211  0.71779925  0.58803846    -0.74800
C861        C  0.16327251  0.70903495  0.60503179     0.97600
O862        O  0.36804760  0.72860648  0.54840219    -0.63600
O863        O  0.29661742  0.67748748  0.41057696    -0.58400
O864        O  0.30641579  0.67728405  0.53463226    -0.95100
O865        O  0.28867062  0.66146602  0.48194977    -0.93500
O866        O  0.38230454  0.74511979  0.40767857    -0.93800
O867        O  0.41936325  0.77463258  0.46257699    -0.92600
C868        C  0.30896475  0.65615499  0.50908247     1.16400
H869        H  0.26587053  0.74866953  0.40478563     0.32400
H870        H  0.32745450  0.79921520  0.52076470     0.43200
H871        H  0.19368871  0.68552008  0.53091255     0.36800
H872        H  0.11090791  0.80873875  0.50810681     0.33200
H873        H  0.40391206  0.83447759  0.42930341     0.25000
H874        H  0.15885895  0.86900863  0.57483002     0.31000
H875        H  0.04391793  0.76393468  0.59253443     0.36900
H876        H  0.41119415  0.76025864  0.39516733     0.31300
H877        H  0.28507606  0.65354922  0.40914436     0.30200
H878        H  0.19623961  0.63354707  0.45107491     0.31900
H879        H  0.05041245  0.68737079  0.55831611     0.30900
H880        H  0.41957200  0.75170403  0.47245776     0.34800
H881        H  0.38673151  0.71756472  0.52660115     0.27600
H882        H  0.06177442  0.80716791  0.45885457     0.31800
H883        H  0.00390183  0.74288710  0.53831313     0.34700
H884        H  0.28740421  0.68805844  0.38970246     0.27300
H885        H  0.38379787  0.75176124  0.54701436     0.40100
H886        H  0.27756748  0.87974389  0.49447058     0.30200
H887        H  0.35090637  0.85225839  0.44968293     0.37800
H888        H  0.09836094  0.67138698  0.53115994     0.29700
H889        H  0.11401621  0.84419846  0.56570772     0.29700
H890        H  0.06419881  0.77271510  0.43890878     0.30000
C891        C  0.33241333  0.62096328  0.50985700     0.85500
C892        C  0.37420326  0.61218064  0.47656502    -0.54800
C893        C  0.38955283  0.57893242  0.47365058     0.08400
C894        C  0.36299330  0.55757381  0.50494790     0.19300
C895        C  0.28525330  0.59573008  0.51014582    -0.55500
C896        C  0.30115684  0.56297486  0.50709439     0.08500
C897        C  0.36042150  0.60982060  0.53958172    -0.55000
C898        C  0.37654697  0.57628515  0.53710723     0.09100
H899        H  0.38521343  0.62975029  0.45528703     0.13600
H900        H  0.37549429  0.53051335  0.50259122    -0.00700
H901        H  0.24289185  0.60325505  0.51039828     0.13900
H902        H  0.36629757  0.62657871  0.56067842     0.13700
C903        C  0.12029982  0.90449781  0.47271843     0.85500
C904        C  0.16683266  0.93002702  0.47315104    -0.54800
C905        C  0.15026410  0.96266397  0.47611848     0.08400
C906        C  0.08858244  0.96763389  0.47719594     0.19300
C907        C  0.07727563  0.91302567  0.50549034    -0.55500
C908        C  0.06120055  0.94614826  0.50823197     0.08500
C909        C  0.09344781  0.91532571  0.44244560    -0.55000
C910        C  0.07692598  0.94873866  0.44459053     0.09100
H911        H  0.20916561  0.92280255  0.47337399     0.13600
H912        H  0.07554986  0.49456518  0.47932803    -0.00700
H913        H  0.06608518  0.89543547  0.52673769     0.13900
H914        H  0.08856242  0.89843878  0.42123450     0.13700
Zr915      Zr  0.02224752  0.53946639  0.37610869     2.17500
O916        O  0.09851135  0.55410808  0.40466071    -0.52400
O917        O  0.46185339  0.56262213  0.42761727    -0.75600
O918        O  0.05924024  0.59757629  0.36559202    -0.82300
O919        O  0.02574454  0.94460635  0.39997615    -0.84100
O920        O  0.03199763  0.61519589  0.64979873    -0.79700
O921        O  0.05300619  0.49714192  0.41422151    -0.91400
O922        O  0.37296336  0.55225400  0.42301129    -0.77300
O923        O  0.44803383  0.56579235  0.35548177    -0.86800
O924        O  0.44566587  0.50169439  0.38739487    -0.86500
O925        O  0.05423887  0.54679110  0.64789611    -0.73300
O926        O  0.05103155  0.98814743  0.34418938    -0.85400
Zr927      Zr  0.42871608  0.98487251  0.60628529     2.26400
Zr928      Zr  0.47860213  0.57245393  0.62768630     2.06300
Zr929      Zr  0.47329927  0.95132150  0.35469465     2.10000
Zr930      Zr  0.37228635  0.52759699  0.36629315     1.78800
O931        O  0.03266502  0.90224143  0.33926059    -0.94200
O932        O  0.31779565  0.57928519  0.36996872    -0.42000
O933        O  0.39815330  0.97664768  0.33404834    -0.78600
O934        O  0.40006300  0.53601985  0.63867795    -0.97300
O935        O  0.50622628  0.52190313  0.59515001    -0.90600
O936        O  0.50225697  0.95785771  0.62716637    -0.93500
C937        C  0.40972915  0.56353261  0.43927078     1.00300
C938        C  0.05016841  0.96469666  0.41797459     1.13200
C939        C  0.05700513  0.61964955  0.34205583     1.04000
O940        O  0.41749004  0.62110837  0.64049641    -0.95600
O941        O  0.42971963  0.57969938  0.58075892    -0.91400
O942        O  0.39936065  0.52753862  0.56765833    -0.84500
C943        C  0.40387270  0.55992921  0.56328407     1.10600
O944        O  0.16657367  0.50023355  0.63578093    -0.97600
Zr945      Zr  0.07889782  0.99531787  0.61647799     1.88900
O946        O  0.48864155  0.96242378  0.55424401    -0.74200
O947        O  0.03840900  0.59976638  0.57920950    -0.53500
O948        O  0.13185500  0.53666095  0.57839327    -0.98200
O949        O  0.13362609  0.94357010  0.61189642    -0.55400
O950        O  0.07763322  0.97178094  0.55939073    -0.74800
C951        C  0.04085818  0.96131882  0.54272666     0.97600
O952        O  0.35195301  0.97060824  0.57805660    -0.63600
O953        O  0.41391216  0.92304232  0.40276070    -0.58400
O954        O  0.38928788  0.92741677  0.61818837    -0.95100
O955        O  0.41434295  0.91047025  0.66798158    -0.93500
O956        O  0.31961304  0.98504339  0.40287754    -0.93800
O957        O  0.28383354  0.52295437  0.34806623    -0.92600
C958        C  0.38977363  0.90583256  0.64245268     1.16400
H959        H  0.43568103  0.49670783  0.41178154     0.32400
H960        H  0.36926786  0.54618891  0.63079624     0.43200
H961        H  0.01085942  0.93614203  0.61587874     0.36800
H962        H  0.08660096  0.56102201  0.64362248     0.33200
H963        H  0.28805481  0.57655659  0.39048363     0.25000
H964        H  0.02789717  0.62398621  0.58141472     0.31000
H965        H  0.11352853  0.53785315  0.55813658     0.36900
H966        H  0.33150325  0.48718525  0.42552559     0.31300
H967        H  0.43189842  0.90098616  0.40477540     0.30200
H968        H  0.01477106  0.88394146  0.35440831     0.31900
H969        H  0.16465590  0.94720853  0.59231129     0.30900
H970        H  0.28788462  0.50497595  0.66456442     0.34800
H971        H  0.36350969  0.95038242  0.56337166     0.27600
H972        H  0.08613993  0.57385785  0.41988573     0.31800
H973        H  0.15926424  0.51591928  0.65597039     0.34700
H974        H  0.41827265  0.93586052  0.42386725     0.27300
H975        H  0.32168043  0.96276933  0.59654510     0.40100
H976        H  0.42153619  0.62898964  0.66388255     0.30200
H977        H  0.34182454  0.59721886  0.37683980     0.37800
H978        H  0.11077967  0.92593762  0.60335904     0.29700
H979        H  0.07577078  0.59912023  0.58480968     0.29700
H980        H  0.12843082  0.56274498  0.38639913     0.30000
C981        C  0.24842361  0.53617628  0.46671062    -0.10200
C982        C  0.26338316  0.53670380  0.49936821     0.06000
C983        C  0.23968142  0.51373417  0.52468019    -0.03900
C984        C  0.20207562  0.98983417  0.51687060    -0.08400
C985        C  0.18727753  0.98924566  0.48415482     0.05100
C986        C  0.21097511  0.51220832  0.45889294    -0.03400
Br987      Br  0.19592444  0.50956591  0.41304228    -0.03100
H988        H  0.26612107  0.55430844  0.44733760     0.09000
H989        H  0.18441049  0.97167807  0.53622604     0.07100
Br990      Br  0.25525061  0.51613910  0.57045659    -0.03500
C991        C  0.47076802  0.72915117  0.64973660    -0.10200
C992        C  0.01447202  0.73975433  0.66585519     0.06000
C993        C  0.01728459  0.77435432  0.34131607    -0.03900
C994        C  0.47578760  0.79630602  0.66921141    -0.08400
C995        C  0.43213158  0.78572901  0.65303230     0.05100
C996        C  0.42951588  0.75116209  0.64413374    -0.03400
Br997      Br  0.37253244  0.73066655  0.62427555    -0.03100
H998        H  0.46851036  0.70328199  0.64071452     0.09000
H999        H  0.47855865  0.82237381  0.34445435     0.07100
Br1000     Br  0.07393398  0.79464877  0.36163084    -0.03500
C1001       C  0.08256403  0.65435814  0.67584674     0.85500
C1002       C  0.03693490  0.68056826  0.67773258    -0.54800
C1003       C  0.05398588  0.71332039  0.67312820     0.08400
C1004       C  0.11706890  0.71695702  0.00360896     0.19300
C1005       C  0.12310452  0.66180408  0.97537483    -0.55500
C1006       C  0.14176202  0.69436175  0.97250046     0.08500
C1007       C  0.11239863  0.66515745  0.70485499    -0.55000
C1008       C  0.12994737  0.69837854  0.70231239     0.09100
H1009       H  0.49388844  0.67312049  0.68139360     0.13600
H1010       H  0.13388338  0.74288678  0.00032606    -0.00700
H1011       H  0.13199215  0.64368516  0.95402151     0.13900
H1012       H  0.11737514  0.64868574  0.72595784     0.13700
C1013       C  0.36367400  0.87132483  0.97556866     0.85500
C1014       C  0.32314163  0.86390970  0.67597225    -0.54800
C1015       C  0.30497094  0.83125811  0.67908401     0.08400
C1016       C  0.32976733  0.80864047  0.98167840     0.19300
C1017       C  0.40957153  0.84519888  0.97392356    -0.55500
C1018       C  0.39277417  0.81240446  0.97873141     0.08500
C1019       C  0.33373694  0.86001150  0.94669308    -0.55000
C1020       C  0.31634431  0.82672407  0.94958809     0.09100
H1021       H  0.31408191  0.88215288  0.69720013     0.13600
H1022       H  0.31317944  0.78269191  0.98528478    -0.00700
H1023       H  0.45258474  0.85273182  0.97046213     0.13900
H1024       H  0.32845066  0.87623518  0.92546923     0.13700
Zr1025     Zr  0.17537355  0.78845061  0.77560342     2.17500
O1026       O  0.07956196  0.79550484  0.77007861    -0.52400
O1027       O  0.23185357  0.81285898  0.72363806    -0.75600
O1028       O  0.14209951  0.84735242  0.78278437    -0.82300
O1029       O  0.17876094  0.69509126  0.74772731    -0.84100
O1030       O  0.16527290  0.86456047  0.83361307    -0.79700
O1031       O  0.15348032  0.74740135  0.73260668    -0.91400
O1032       O  0.32127596  0.80768713  0.72990511    -0.77300
O1033       O  0.24777974  0.81694647  0.79694302    -0.86800
O1034       O  0.25481473  0.75293834  0.76262708    -0.86500
O1035       O  0.14363239  0.79520418  0.83702510    -0.73300
O1036       O  0.15110498  0.73606853  0.80528858    -0.85400
Zr1037     Zr  0.27262833  0.73621838  0.87557078     2.26400
Zr1038     Zr  0.21686723  0.82275062  0.85792155     2.06300
Zr1039     Zr  0.23131442  0.70155592  0.79302621     2.10000
Zr1040     Zr  0.32639124  0.78124255  0.78416356     1.78800
O1041       O  0.17648302  0.64999431  0.80304165    -0.94200
O1042       O  0.37733785  0.83428636  0.78353881    -0.42000
O1043       O  0.30414443  0.72922761  0.81412759    -0.78600
O1044       O  0.29752533  0.78838107  0.84532127    -0.97300
O1045       O  0.19290676  0.77139410  0.88831645    -0.90600
O1046       O  0.20051997  0.70772422  0.85387553    -0.93500
C1047       C  0.28412178  0.81663921  0.71320366     1.00300
C1048       C  0.15605676  0.71487722  0.72904393     1.13200
C1049       C  0.14291076  0.86935470  0.80719537     1.04000
O1050       O  0.27016975  0.87505543  0.85225053    -0.95600
O1051       O  0.26601907  0.82945988  0.90485642    -0.91400
O1052       O  0.29391535  0.77740016  0.91892968    -0.84500
C1053       C  0.28987783  0.80986990  0.92310551     1.10600
O1054       O  0.03042737  0.74992503  0.85201488    -0.97600
Zr1055     Zr  0.12144537  0.74307209  0.86650164     1.88900
O1056       O  0.21540599  0.71259651  0.92789718    -0.74200
O1057       O  0.15043682  0.84550460  0.90649424    -0.53500
O1058       O  0.06600408  0.78071613  0.90875579    -0.98200
O1059       O  0.06949935  0.69025971  0.86773192    -0.55400
O1060       O  0.12610372  0.71757911  0.92129998    -0.74800
C1061       C  0.16304538  0.70896845  0.93831391     0.97600
O1062       O  0.36809817  0.72904993  0.88177486    -0.63600
O1063       O  0.29517235  0.67650182  0.74435200    -0.58400
O1064       O  0.30638482  0.67734246  0.86802564    -0.95100
O1065       O  0.28777882  0.66140408  0.81559443    -0.93500
O1066       O  0.38299936  0.74438834  0.74172330    -0.93800
O1067       O  0.41886583  0.77589163  0.79653486    -0.92600
C1068       C  0.30845214  0.65611978  0.84258772     1.16400
H1069       H  0.26519126  0.74849759  0.73804643     0.32400
H1070       H  0.32761388  0.79913636  0.85377242     0.43200
H1071       H  0.19323484  0.68581508  0.86448004     0.36800
H1072       H  0.11093633  0.80908118  0.84149944     0.33200
H1073       H  0.40351364  0.83404070  0.76107859     0.25000
H1074       H  0.16061694  0.86970377  0.90780512     0.31000
H1075       H  0.04544229  0.76548639  0.92647957     0.36900
H1076       H  0.40920099  0.75990097  0.72737626     0.31300
H1077       H  0.28135200  0.65315338  0.74216851     0.30200
H1078       H  0.19572980  0.63340729  0.78587862     0.31900
H1079       H  0.04927663  0.68830904  0.89191789     0.30900
H1080       H  0.42012082  0.75275794  0.80577497     0.34800
H1081       H  0.38690970  0.71826767  0.85986313     0.27600
H1082       H  0.06092844  0.80624959  0.79205210     0.31800
H1083       H  0.00360730  0.74440136  0.87331519     0.34700
H1084       H  0.28797208  0.68815662  0.72351617     0.27300
H1085       H  0.38358078  0.75227096  0.88064762     0.40100
H1086       H  0.28052944  0.87869467  0.82698847     0.30200
H1087       H  0.35040011  0.85208608  0.78093149     0.37800
H1088       H  0.09736603  0.67202001  0.86510266     0.29700
H1089       H  0.11492945  0.84574019  0.89835740     0.29700
H1090       H  0.06422264  0.77224475  0.77128876     0.30000
C1091       C  0.33209914  0.62093950  0.84324710     0.85500
C1092       C  0.37409648  0.61239172  0.80998445    -0.54800
C1093       C  0.38987415  0.57921685  0.80699967     0.08400
C1094       C  0.36337873  0.55767047  0.83817102     0.19300
C1095       C  0.28523095  0.59550819  0.84332342    -0.55500
C1096       C  0.30152258  0.56280796  0.84016423     0.08500
C1097       C  0.36006245  0.60981200  0.87300350    -0.55000
C1098       C  0.37647565  0.57633244  0.87047738     0.09100
H1099       H  0.38490385  0.63003162  0.78874998     0.13600
H1100       H  0.37619961  0.53066747  0.83573804    -0.00700
H1101       H  0.24280928  0.60286806  0.84353519     0.13900
H1102       H  0.36563832  0.62653610  0.89419065     0.13700
C1103       C  0.11967533  0.90452005  0.80613719     0.85500
C1104       C  0.16648372  0.92988588  0.80635642    -0.54800
C1105       C  0.15026236  0.96256722  0.80935922     0.08400
C1106       C  0.08857202  0.96778497  0.81061129     0.19300
C1107       C  0.07697791  0.91320707  0.83900349    -0.55500
C1108       C  0.06120837  0.94638740  0.84170973     0.08500
C1109       C  0.09259783  0.91544514  0.77597687    -0.55000
C1110       C  0.07637615  0.94892745  0.77811563     0.09100
H1111       H  0.20879874  0.92251364  0.80645179     0.13600
H1112       H  0.07580107  0.49480685  0.81275218    -0.00700
H1113       H  0.06574907  0.89566279  0.86028737     0.13900
H1114       H  0.08735919  0.89856362  0.75483724     0.13700
Zr1115     Zr  0.02209317  0.53960802  0.70936987     2.17500
O1116       O  0.09955901  0.55414240  0.73686754    -0.52400
O1117       O  0.46219410  0.56290634  0.76096755    -0.75600
O1118       O  0.05882868  0.59773149  0.69884648    -0.82300
O1119       O  0.02507014  0.94489784  0.73352100    -0.84100
O1120       O  0.03155213  0.61535965  0.98322781    -0.79700
O1121       O  0.05239418  0.49743127  0.74781523    -0.91400
O1122       O  0.37328273  0.55278104  0.75629147    -0.77300
O1123       O  0.44810265  0.56612560  0.68871525    -0.86800
O1124       O  0.44531034  0.50196572  0.72073593    -0.86500
O1125       O  0.05437856  0.54702036  0.98133204    -0.73300
O1126       O  0.05047377  0.98813515  0.67763666    -0.85400
Zr1127     Zr  0.42882907  0.98495512  0.93968413     2.26400
Zr1128     Zr  0.47851680  0.57242800  0.96111606     2.06300
Zr1129     Zr  0.47257365  0.95144407  0.68818971     2.10000
Zr1130     Zr  0.37213421  0.52812424  0.69966339     1.78800
O1131       O  0.03252863  0.90259696  0.67279626    -0.94200
O1132       O  0.31853415  0.58021157  0.70369954    -0.42000
O1133       O  0.39747047  0.97696091  0.66760807    -0.78600
O1134       O  0.39998423  0.53599885  0.97218253    -0.97300
O1135       O  0.50622689  0.52197983  0.92850828    -0.90600
O1136       O  0.50257863  0.95810375  0.96051510    -0.93500
C1137       C  0.41007377  0.56393237  0.77258379     1.00300
C1138       C  0.04948881  0.96496110  0.75156373     1.13200
C1139       C  0.05690875  0.61971957  0.67519570     1.04000
O1140       O  0.41850922  0.62157307  0.97372420    -0.95600
O1141       O  0.42914245  0.57977189  0.91441580    -0.91400
O1142       O  0.39940671  0.52756456  0.90100310    -0.84500
C1143       C  0.40364560  0.55998026  0.89675261     1.10600
O1144       O  0.16711700  0.50006342  0.96872133    -0.97600
Zr1145     Zr  0.07916612  0.99561329  0.94977376     1.88900
O1146       O  0.48881402  0.96218841  0.88790935    -0.74200
O1147       O  0.03847132  0.59903628  0.91223879    -0.53500
O1148       O  0.13207424  0.53709802  0.91174070    -0.98200
O1149       O  0.13396744  0.94386896  0.94477860    -0.55400
O1150       O  0.07773354  0.97261203  0.89251969    -0.74800
C1151       C  0.04094828  0.96161774  0.87614637     0.97600
O1152       O  0.35333029  0.97081122  0.91032108    -0.63600
O1153       O  0.41306297  0.92275672  0.73588461    -0.58400
O1154       O  0.38873554  0.92770686  0.95174147    -0.95100
O1155       O  0.41409691  0.91073483  0.00143386    -0.93500
O1156       O  0.31925011  0.98605141  0.73689256    -0.93800
O1157       O  0.28337695  0.52374284  0.68180203    -0.92600
C1158       C  0.38936471  0.90610522  0.97596726     1.16400
H1159       H  0.43531995  0.49701162  0.74512948     0.32400
H1160       H  0.36919429  0.54616173  0.96429147     0.43200
H1161       H  0.01118958  0.93640248  0.94925965     0.36800
H1162       H  0.08669551  0.56129164  0.97706528     0.33200
H1163       H  0.28934515  0.57779647  0.72455765     0.25000
H1164       H  0.02766715  0.62321537  0.91387443     0.31000
H1165       H  0.11445461  0.53785524  0.89115761     0.36900
H1166       H  0.33207812  0.48797772  0.75919700     0.31300
H1167       H  0.43132219  0.90079035  0.73789615     0.30200
H1168       H  0.01404382  0.88400557  0.68727325     0.31900
H1169       H  0.16514167  0.94768226  0.92532838     0.30900
H1170       H  0.28844758  0.50534586  0.99699576     0.34800
H1171       H  0.36555468  0.95074538  0.89554567     0.27600
H1172       H  0.08764331  0.57381724  0.75230266     0.31800
H1173       H  0.15968750  0.51475197  0.98967673     0.34700
H1174       H  0.41702625  0.93556172  0.75707474     0.27300
H1175       H  0.32272285  0.96268446  0.92842087     0.40100
H1176       H  0.42069754  0.62845123  0.99772359     0.30200
H1177       H  0.34322458  0.59802355  0.71007115     0.37800
H1178       H  0.11124321  0.92634965  0.93595610     0.29700
H1179       H  0.07570624  0.59880439  0.91805200     0.29700
H1180       H  0.12903987  0.56283056  0.71835383     0.30000
C1181       C  0.24912494  0.53574217  0.79970485    -0.10200
C1182       C  0.26408721  0.53634161  0.83236673     0.06000
C1183       C  0.24041119  0.51337185  0.85769475    -0.03900
C1184       C  0.20281700  0.98941837  0.84989717    -0.08400
C1185       C  0.18770654  0.98895146  0.81727783     0.05100
C1186       C  0.21144154  0.51186362  0.79199159    -0.03400
Br1187     Br  0.19563363  0.50936615  0.74631843    -0.03100
H1188       H  0.26677792  0.55385010  0.78030708     0.09000
H1189       H  0.18516862  0.97126097  0.86925326     0.07100
Br1190     Br  0.25591493  0.51580644  0.90346647    -0.03500
C1191       C  0.47139381  0.72958074  0.98251202    -0.10200
C1192       C  0.01477755  0.74006600  0.99897572     0.06000
C1193       C  0.01702316  0.77428667  0.67488881    -0.03900
C1194       C  0.47586094  0.79662800  0.00250606    -0.08400
C1195       C  0.43231778  0.78605575  0.98622621     0.05100
C1196       C  0.42996269  0.75153571  0.97709073    -0.03400
Br1197     Br  0.37277285  0.73093276  0.95752494    -0.03100
H1198       H  0.46935268  0.70375022  0.97332692     0.09000
H1199       H  0.47805108  0.82220193  0.67813106     0.07100
Br1200     Br  0.07427998  0.79463167  0.69459973    -0.03500
C1201       C  0.58219342  0.15450849  0.00925062     0.85500
C1202       C  0.53670716  0.18083393  0.01110411    -0.54800
C1203       C  0.55400068  0.21355195  0.00646703     0.08400
C1204       C  0.61691284  0.21689522  0.33697250     0.19300
C1205       C  0.62343073  0.16168362  0.30885249    -0.55500
C1206       C  0.64183426  0.19429904  0.30593933     0.08500
C1207       C  0.61211974  0.16523415  0.03823793    -0.55000
C1208       C  0.62987158  0.19840752  0.03568039     0.09100
H1209       H  0.99366093  0.17347447  0.01457645     0.13600
H1210       H  0.63359410  0.24284576  0.33362842    -0.00700
H1211       H  0.63255572  0.14353003  0.28754467     0.13900
H1212       H  0.61701473  0.14874644  0.05934517     0.13700
C1213       C  0.86404373  0.37125060  0.30881193     0.85500
C1214       C  0.82314114  0.36406879  0.00947142    -0.54800
C1215       C  0.80514446  0.33138989  0.01260237     0.08400
C1216       C  0.82995462  0.30861448  0.31492225     0.19300
C1217       C  0.90986781  0.34508677  0.30710414    -0.55500
C1218       C  0.89298619  0.31230789  0.31189230     0.08500
C1219       C  0.83404070  0.36001814  0.27995618    -0.55000
C1220       C  0.81652489  0.32675970  0.28287396     0.09100
H1221       H  0.81408117  0.38230436  0.03070760     0.13600
H1222       H  0.81331470  0.28267595  0.31851834    -0.00700
H1223       H  0.95290354  0.35258693  0.30357183     0.13900
H1224       H  0.82878584  0.37626382  0.25874176     0.13700
Zr1225     Zr  0.67581076  0.28824065  0.10895864     2.17500
O1226       O  0.57993215  0.29548018  0.10377340    -0.52400
O1227       O  0.73212460  0.31239612  0.05685906    -0.75600
O1228       O  0.64318815  0.34724940  0.11578934    -0.82300
O1229       O  0.67859438  0.19501167  0.08119860    -0.84100
O1230       O  0.66575594  0.36443009  0.16679351    -0.79700
O1231       O  0.65372462  0.24735778  0.06592457    -0.91400
O1232       O  0.82140606  0.30829913  0.06371200    -0.77300
O1233       O  0.74812434  0.31677115  0.13034859    -0.86800
O1234       O  0.75517671  0.25272257  0.09605404    -0.86500
O1235       O  0.64398525  0.29501435  0.17033337    -0.73300
O1236       O  0.65128737  0.23588116  0.13865415    -0.85400
Zr1237     Zr  0.77272389  0.23619513  0.20905618     2.26400
Zr1238     Zr  0.71702753  0.32262871  0.19130511     2.06300
Zr1239     Zr  0.73147409  0.20137906  0.12643833     2.10000
Zr1240     Zr  0.82669515  0.28104828  0.11759001     1.78800
O1241       O  0.67740648  0.14946956  0.13610289    -0.94200
O1242       O  0.87819844  0.33386048  0.11715397    -0.42000
O1243       O  0.80416757  0.22909994  0.14763811    -0.78600
O1244       O  0.79769397  0.28828734  0.17874342    -0.97300
O1245       O  0.69298294  0.27131193  0.22170540    -0.90600
O1246       O  0.70068136  0.20761631  0.18730749    -0.93500
C1247       C  0.78431865  0.31675590  0.04673182     1.00300
C1248       C  0.65607094  0.21483170  0.06242905     1.13200
C1249       C  0.64373590  0.36923400  0.14024343     1.04000
O1250       O  0.77034025  0.37492795  0.18638537    -0.95600
O1251       O  0.76603173  0.32952863  0.23825053    -0.91400
O1252       O  0.79400775  0.27748023  0.25229177    -0.84500
C1253       C  0.78996397  0.30994444  0.25645464     1.10600
O1254       O  0.53077023  0.25090512  0.18535800    -0.97600
Zr1255     Zr  0.62157663  0.24293898  0.19987039     1.88900
O1256       O  0.71552679  0.21268455  0.26145246    -0.74200
O1257       O  0.64954430  0.34495062  0.23957970    -0.53500
O1258       O  0.56664933  0.28042950  0.24250849    -0.98200
O1259       O  0.56944586  0.19017993  0.20093905    -0.55400
O1260       O  0.62625336  0.21740850  0.25466967    -0.74800
C1261       C  0.66316576  0.20891864  0.27176847     0.97600
O1262       O  0.86843448  0.22953878  0.21492973    -0.63600
O1263       O  0.79575180  0.17719699  0.07744843    -0.58400
O1264       O  0.80681020  0.17742355  0.20167317    -0.95100
O1265       O  0.78805575  0.16147466  0.14927075    -0.93500
O1266       O  0.88198764  0.24426193  0.07441830    -0.93800
O1267       O  0.91914281  0.27477410  0.12983043    -0.92600
C1268       C  0.80883629  0.15621422  0.17623242     1.16400
H1269       H  0.76559171  0.24829728  0.07147298     0.32400
H1270       H  0.82775703  0.29906357  0.18720328     0.43200
H1271       H  0.69339311  0.18571624  0.19793426     0.36800
H1272       H  0.61131779  0.30891548  0.17474516     0.33200
H1273       H  0.90397888  0.33377729  0.09453994     0.25000
H1274       H  0.66007446  0.36901960  0.24153553     0.31000
H1275       H  0.54352450  0.26509780  0.25898347     0.36900
H1276       H  0.91027699  0.25940348  0.06130396     0.31300
H1277       H  0.78420961  0.15324247  0.07618468     0.30200
H1278       H  0.69521303  0.13361808  0.11767498     0.31900
H1279       H  0.54797245  0.18870873  0.22485938     0.30900
H1280       H  0.92122840  0.25085219  0.13672252     0.34800
H1281       H  0.88717412  0.21879104  0.19298237     0.27600
H1282       H  0.56159736  0.30650691  0.12566262     0.31800
H1283       H  0.50376327  0.24379938  0.20598887     0.34700
H1284       H  0.78630167  0.18764565  0.05657921     0.27300
H1285       H  0.88365106  0.25282876  0.21371862     0.40100
H1286       H  0.77971825  0.37929068  0.16121523     0.30200
H1287       H  0.85127250  0.35181903  0.11500260     0.37800
H1288       H  0.59708429  0.17188150  0.19931756     0.29700
H1289       H  0.61448954  0.34571960  0.23093380     0.29700
H1290       H  0.56440449  0.27226533  0.10531842     0.30000
C1291       C  0.83231427  0.12100910  0.17686542     0.85500
C1292       C  0.87415428  0.11237572  0.14354769    -0.54800
C1293       C  0.88955403  0.07913697  0.14048157     0.08400
C1294       C  0.86296471  0.05763424  0.17167749     0.19300
C1295       C  0.78518151  0.09577117  0.17700655    -0.55500
C1296       C  0.80110714  0.06302400  0.17379776     0.08500
C1297       C  0.86027625  0.10972953  0.20655227    -0.55000
C1298       C  0.87644975  0.07620400  0.20394990     0.09100
H1299       H  0.88515266  0.13004495  0.12235702     0.13600
H1300       H  0.87550407  0.03058349  0.16919751    -0.00700
H1301       H  0.74281691  0.10330180  0.17727892     0.13900
H1302       H  0.86610327  0.12640617  0.22772136     0.13700
C1303       C  0.62046053  0.40436982  0.13913051     0.85500
C1304       C  0.66716104  0.42982279  0.13938741    -0.54800
C1305       C  0.65077821  0.46249224  0.14231724     0.08400
C1306       C  0.58908413  0.46756923  0.14360032     0.19300
C1307       C  0.57767646  0.41299405  0.17198411    -0.55500
C1308       C  0.56184881  0.44615882  0.17474350     0.08500
C1309       C  0.59341227  0.41523163  0.10893346    -0.55000
C1310       C  0.57708544  0.44869487  0.11106778     0.09100
H1311       H  0.70947872  0.42252367  0.13956824     0.13600
H1312       H  0.57630314  0.99456507  0.14565287    -0.00700
H1313       H  0.56647622  0.39542340  0.19324831     0.13900
H1314       H  0.58831443  0.39834238  0.08776781     0.13700
Zr1315     Zr  0.52211002  0.03969605  0.04281823     2.17500
O1316       O  0.59857341  0.05496341  0.07104315    -0.52400
O1317       O  0.96183609  0.06290981  0.09436193    -0.75600
O1318       O  0.55869640  0.09783966  0.03217233    -0.82300
O1319       O  0.52572850  0.44471840  0.06650980    -0.84100
O1320       O  0.53195938  0.11512051  0.31669631    -0.79700
O1321       O  0.55316996  0.99721833  0.08074144    -0.91400
O1322       O  0.87290193  0.05263130  0.08977655    -0.77300
O1323       O  0.94789029  0.06590052  0.02213563    -0.86800
O1324       O  0.94535378  0.00201584  0.05425569    -0.86500
O1325       O  0.55457369  0.04683703  0.31463411    -0.73300
O1326       O  0.55056010  0.48830295  0.01095156    -0.85400
Zr1327     Zr  0.92954056  0.48477046  0.27283433     2.26400
Zr1328     Zr  0.97873274  0.07236471  0.29448192     2.06300
Zr1329     Zr  0.97268822  0.45161671  0.02152819     2.10000
Zr1330     Zr  0.87192994  0.02784593  0.03314585     1.78800
O1331       O  0.53151939  0.40234529  0.00627279    -0.94200
O1332       O  0.81666170  0.07921948  0.03714269    -0.42000
O1333       O  0.89732419  0.47680470  0.00095057    -0.78600
O1334       O  0.90042486  0.03575778  0.30535301    -0.97300
O1335       O  0.00679973  0.02197308  0.26177737    -0.90600
O1336       O  0.00316704  0.45784086  0.29370158    -0.93500
C1337       C  0.90970971  0.06385923  0.10603079     1.00300
C1338       C  0.55025533  0.46475276  0.08450485     1.13200
C1339       C  0.55653074  0.11987597  0.00860673     1.04000
O1340       O  0.91843921  0.12136416  0.30762338    -0.95600
O1341       O  0.92901724  0.07962437  0.24792873    -0.91400
O1342       O  0.90009620  0.02734502  0.23409647    -0.84500
C1343       C  0.90384956  0.05980469  0.23009418     1.10600
O1344       O  0.66730290  0.99978077  0.30233468    -0.97600
Zr1345     Zr  0.57959412  0.49545733  0.28301013     1.88900
O1346       O  0.98956524  0.46206893  0.22101676    -0.74200
O1347       O  0.53793946  0.09938140  0.24557430    -0.53500
O1348       O  0.63255185  0.03711078  0.24526127    -0.98200
O1349       O  0.63413997  0.44361048  0.27811261    -0.55400
O1350       O  0.57844223  0.47225425  0.22571540    -0.74800
C1351       C  0.54165911  0.46137558  0.20925168     0.97600
O1352       O  0.85360767  0.47061541  0.24388429    -0.63600
O1353       O  0.91345749  0.42378869  0.06996696    -0.58400
O1354       O  0.88971477  0.42746433  0.28485004    -0.95100
O1355       O  0.91427295  0.41060028  0.33482337    -0.93500
O1356       O  0.81963516  0.48537833  0.07011776    -0.93800
O1357       O  0.78347657  0.02342460  0.01486650    -0.92600
C1358       C  0.88985933  0.40596174  0.30922236     1.16400
H1359       H  0.93541749  0.99704160  0.07864839     0.32400
H1360       H  0.86955374  0.04583249  0.29747550     0.43200
H1361       H  0.51180852  0.43615336  0.28237154     0.36800
H1362       H  0.58686158  0.06113178  0.31041549     0.33200
H1363       H  0.78731290  0.07643615  0.05785281     0.25000
H1364       H  0.52652430  0.12345433  0.24722424     0.31000
H1365       H  0.61427474  0.03846370  0.22499312     0.36900
H1366       H  0.83087880  0.98801872  0.09280918     0.31300
H1367       H  0.93056573  0.40136244  0.07150079     0.30200
H1368       H  0.51437793  0.38443372  0.02221854     0.31900
H1369       H  0.66524245  0.44732564  0.25859167     0.30900
H1370       H  0.78702962  0.00259096  0.33307628     0.34800
H1371       H  0.86563938  0.45052814  0.22909669     0.27600
H1372       H  0.58629709  0.07486830  0.08606655     0.31800
H1373       H  0.66084404  0.01652185  0.32163159     0.34700
H1374       H  0.91916381  0.43618328  0.09103974     0.27300
H1375       H  0.82316055  0.46253345  0.26211955     0.40100
H1376       H  0.92210001  0.12878280  0.33122411     0.30200
H1377       H  0.84066421  0.09731051  0.04373610     0.37800
H1378       H  0.61129300  0.42608363  0.26941014     0.29700
H1379       H  0.57520411  0.09952513  0.25135181     0.29700
H1380       H  0.62846696  0.06340853  0.05264572     0.30000
C1381       C  0.74801976  0.03653599  0.13338533    -0.10200
C1382       C  0.76335870  0.03676615  0.16593528     0.06000
C1383       C  0.74029383  0.01336266  0.19097031    -0.03900
C1384       C  0.70309218  0.48929066  0.18296301    -0.08400
C1385       C  0.68787296  0.48901287  0.15037994     0.05100
C1386       C  0.71094919  0.01240657  0.12537088    -0.03400
Br1387     Br  0.69570387  0.01007950  0.07955888    -0.03100
H1388       H  0.76525520  0.05497297  0.11422811     0.09000
H1389       H  0.68591534  0.47082625  0.20212199     0.07100
Br1390     Br  0.75593685  0.01542790  0.23671356    -0.03500
C1391       C  0.97089361  0.22928237  0.31616326    -0.10200
C1392       C  0.51452001  0.23978890  0.33245263     0.06000
C1393       C  0.51714667  0.27456642  0.00816357    -0.03900
C1394       C  0.97609219  0.29646121  0.33553855    -0.08400
C1395       C  0.93245856  0.28591371  0.31935271     0.05100
C1396       C  0.92978240  0.25135167  0.31045855    -0.03400
Br1397     Br  0.87282741  0.23093009  0.29054977    -0.03100
H1398       H  0.96857674  0.20340223  0.30718523     0.09000
H1399       H  0.97801704  0.32248697  0.01149286     0.07100
Br1400     Br  0.57385924  0.29477748  0.02847081    -0.03500
C1401       C  0.58247819  0.15434771  0.34268197     0.85500
C1402       C  0.53682349  0.18055741  0.34446982    -0.54800
C1403       C  0.55389011  0.21331599  0.33982657     0.08400
C1404       C  0.61697753  0.21686183  0.67029091     0.19300
C1405       C  0.62344228  0.16172718  0.64204128    -0.55500
C1406       C  0.64188763  0.19433512  0.63920048     0.08500
C1407       C  0.61228940  0.16524608  0.37166991    -0.55000
C1408       C  0.62983003  0.19846713  0.36904097     0.09100
H1409       H  0.99374469  0.17312435  0.34793636     0.13600
H1410       H  0.63376918  0.24277831  0.66698796    -0.00700
H1411       H  0.63251458  0.14362567  0.62068412     0.13900
H1412       H  0.61732762  0.14882652  0.39279941     0.13700
C1413       C  0.86393340  0.37110454  0.64208589     0.85500
C1414       C  0.82337332  0.36400796  0.34274563    -0.54800
C1415       C  0.80528770  0.33134922  0.34585307     0.08400
C1416       C  0.82975296  0.30847811  0.64823805     0.19300
C1417       C  0.90970532  0.34491253  0.64051697    -0.55500
C1418       C  0.89276962  0.31214837  0.64536277     0.08500
C1419       C  0.83401307  0.35983557  0.61319867    -0.55000
C1420       C  0.81643056  0.32659338  0.61614943     0.09100
H1421       H  0.81430502  0.38223502  0.36398841     0.13600
H1422       H  0.81304850  0.28255381  0.65183740    -0.00700
H1423       H  0.95273835  0.35239068  0.63708625     0.13900
H1424       H  0.82876595  0.37606609  0.59197146     0.13700
Zr1425     Zr  0.67574918  0.28834188  0.44227366     2.17500
O1426       O  0.57988090  0.29583830  0.43714889    -0.52400
O1427       O  0.73219837  0.31204257  0.38993760    -0.75600
O1428       O  0.64364556  0.34748840  0.44913944    -0.82300
O1429       O  0.67918257  0.19521539  0.41418987    -0.84100
O1430       O  0.66486019  0.36435858  0.50061769    -0.79700
O1431       O  0.65337012  0.24749718  0.39930244    -0.91400
O1432       O  0.82136070  0.30875130  0.39722681    -0.77300
O1433       O  0.74777685  0.31697432  0.46385302    -0.86800
O1434       O  0.75531815  0.25298477  0.42936931    -0.86500
O1435       O  0.64362008  0.29485078  0.50368501    -0.73300
O1436       O  0.65153876  0.23577467  0.47166617    -0.85400
Zr1437     Zr  0.77261005  0.23607802  0.54223334     2.26400
Zr1438     Zr  0.71646898  0.32254320  0.52483399     2.06300
Zr1439     Zr  0.73193955  0.20144953  0.45946176     2.10000
Zr1440     Zr  0.82655872  0.28142308  0.45107483     1.78800
O1441       O  0.67816464  0.14942627  0.46926386    -0.94200
O1442       O  0.87770451  0.33424128  0.45181153    -0.42000
O1443       O  0.80430713  0.22931479  0.48084167    -0.78600
O1444       O  0.79742324  0.28838790  0.51224448    -0.97300
O1445       O  0.69263150  0.27101828  0.55490880    -0.90600
O1446       O  0.70085249  0.20739527  0.52032566    -0.93500
C1447       C  0.78435971  0.31675113  0.37999747     1.00300
C1448       C  0.65613783  0.21498881  0.39565948     1.13200
C1449       C  0.64353064  0.36931848  0.47382429     1.04000
O1450       O  0.76905203  0.37513517  0.51952124    -0.95600
O1451       O  0.76540463  0.32941497  0.57180055    -0.91400
O1452       O  0.79398369  0.27737283  0.58545120    -0.84500
C1453       C  0.78967508  0.30981250  0.58980115     1.10600
O1454       O  0.53108589  0.24965512  0.51763379    -0.97600
Zr1455     Zr  0.62153749  0.24253586  0.53288157     1.88900
O1456       O  0.71561298  0.21241987  0.59457293    -0.74200
O1457       O  0.64972856  0.34467489  0.57361902    -0.53500
O1458       O  0.56460144  0.27937920  0.57519839    -0.98200
O1459       O  0.57022315  0.18945803  0.53404862    -0.55400
O1460       O  0.62634124  0.21772976  0.58802853    -0.74800
C1461       C  0.66323596  0.20899232  0.60503689     0.97600
O1462       O  0.86802495  0.22854250  0.54838755    -0.63600
O1463       O  0.79675236  0.17744410  0.41061701    -0.58400
O1464       O  0.80641161  0.17723526  0.53460775    -0.95100
O1465       O  0.78863756  0.16140522  0.48193509    -0.93500
O1466       O  0.88243570  0.24521695  0.40762030    -0.93800
O1467       O  0.91928952  0.27444255  0.46259060    -0.92600
C1468       C  0.80895045  0.15610289  0.50906209     1.16400
H1469       H  0.76583058  0.24863819  0.40478044     0.32400
H1470       H  0.82742370  0.29917240  0.52076421     0.43200
H1471       H  0.69367974  0.18545983  0.53089212     0.36800
H1472       H  0.61086447  0.30867450  0.50812116     0.33200
H1473       H  0.90426754  0.33426933  0.42951015     0.25000
H1474       H  0.65895135  0.36904115  0.57477642     0.31000
H1475       H  0.54368931  0.26381397  0.59243852     0.36900
H1476       H  0.91142808  0.26037774  0.39525656     0.31300
H1477       H  0.78497535  0.15357243  0.40900049     0.30200
H1478       H  0.69674383  0.13332979  0.45133089     0.31900
H1479       H  0.55060071  0.18721968  0.55833917     0.30900
H1480       H  0.91941844  0.25149949  0.47244849     0.34800
H1481       H  0.88669475  0.21744909  0.52661246     0.27600
H1482       H  0.56172045  0.30714659  0.45892064     0.31800
H1483       H  0.50388529  0.24311688  0.53840287     0.34700
H1484       H  0.78787406  0.18820771  0.38974663     0.27300
H1485       H  0.88379886  0.25169161  0.54694102     0.40100
H1486       H  0.77791839  0.37951060  0.49434013     0.30200
H1487       H  0.85098079  0.35220210  0.44929121     0.37800
H1488       H  0.59832381  0.17133822  0.53093956     0.29700
H1489       H  0.61404627  0.34425456  0.56569270     0.29700
H1490       H  0.56410368  0.27268788  0.43898785     0.30000
C1491       C  0.83242290  0.12092044  0.50983420     0.85500
C1492       C  0.87423683  0.11215784  0.47655112    -0.54800
C1493       C  0.88961125  0.07891588  0.47363238     0.08400
C1494       C  0.86304930  0.05754003  0.50491683     0.19300
C1495       C  0.78528665  0.09567542  0.51010708    -0.55500
C1496       C  0.80121022  0.06292494  0.50705953     0.08500
C1497       C  0.86041777  0.10978132  0.53956428    -0.55000
C1498       C  0.87656704  0.07625104  0.53708337     0.09100
H1499       H  0.88524419  0.12973416  0.45527853     0.13600
H1500       H  0.87557384  0.03048348  0.50255534    -0.00700
H1501       H  0.74292100  0.10318874  0.51035611     0.13900
H1502       H  0.86626515  0.12653603  0.56066970     0.13700
C1503       C  0.62026094  0.40445485  0.47271767     0.85500
C1504       C  0.66682731  0.42995733  0.47317254    -0.54800
C1505       C  0.65030979  0.46260456  0.47612222     0.08400
C1506       C  0.58864393  0.46761051  0.47717974     0.19300
C1507       C  0.57721473  0.41300355  0.50547408    -0.55500
C1508       C  0.56120213  0.44613848  0.50821439     0.08500
C1509       C  0.59347217  0.41530618  0.44242626    -0.55000
C1510       C  0.57699824  0.44872903  0.44456438     0.09100
H1511       H  0.70914408  0.42270791  0.47341342     0.13600
H1512       H  0.57549125  0.99456693  0.47932448    -0.00700
H1513       H  0.56597399  0.39541529  0.52671834     0.13900
H1514       H  0.58858353  0.39842431  0.42121180     0.13700
Zr1515     Zr  0.52224051  0.03948046  0.37609282     2.17500
O1516       O  0.59857871  0.05414197  0.40457085    -0.52400
O1517       O  0.96190356  0.06258116  0.42761851    -0.75600
O1518       O  0.55909550  0.09761044  0.36563096    -0.82300
O1519       O  0.52591271  0.44460677  0.39990513    -0.84100
O1520       O  0.53192536  0.11518567  0.64981466    -0.79700
O1521       O  0.55291026  0.99716834  0.41425757    -0.91400
O1522       O  0.87300399  0.05231864  0.42296764    -0.77300
O1523       O  0.94806636  0.06580789  0.35547144    -0.86800
O1524       O  0.94564336  0.00172648  0.38738889    -0.86500
O1525       O  0.55421339  0.04677573  0.64790640    -0.73300
O1526       O  0.55103303  0.48816083  0.34418407    -0.85400
Zr1527     Zr  0.92876824  0.48487153  0.60627690     2.26400
Zr1528     Zr  0.97860651  0.07245707  0.62766711     2.06300
Zr1529     Zr  0.97326289  0.45129051  0.35472252     2.10000
Zr1530     Zr  0.87228857  0.02763826  0.36627290     1.78800
O1531       O  0.53276344  0.40223693  0.33923774    -0.94200
O1532       O  0.81783109  0.07933902  0.36991235    -0.42000
O1533       O  0.89810371  0.47660510  0.33407794    -0.78600
O1534       O  0.90005303  0.03602778  0.63866221    -0.97300
O1535       O  0.00621722  0.02189113  0.59515135    -0.90600
O1536       O  0.00232769  0.45785368  0.62715149    -0.93500
C1537       C  0.90977905  0.06353645  0.43924980     1.00300
C1538       C  0.55025652  0.46469952  0.41794633     1.13200
C1539       C  0.55693543  0.11965616  0.34206113     1.04000
O1540       O  0.91746453  0.12109290  0.64051572    -0.95600
O1541       O  0.92975304  0.07966965  0.58072100    -0.91400
O1542       O  0.89933215  0.02751485  0.56765236    -0.84500
C1543       C  0.90388111  0.05990000  0.56326133     1.10600
O1544       O  0.66652347  0.00010832  0.63578500    -0.97600
Zr1545     Zr  0.57892034  0.49532522  0.61646184     1.88900
O1546       O  0.98870498  0.46243151  0.55424151    -0.74200
O1547       O  0.53846667  0.09965508  0.57918468    -0.53500
O1548       O  0.63177849  0.03671164  0.57846673    -0.98200
O1549       O  0.63359979  0.44355557  0.61184054    -0.55400
O1550       O  0.57766586  0.47178877  0.55936693    -0.74800
C1551       C  0.54088051  0.46131722  0.54271374     0.97600
O1552       O  0.85207352  0.47056263  0.57799427    -0.63600
O1553       O  0.91389819  0.42296861  0.40277204    -0.58400
O1554       O  0.88921184  0.42745169  0.61822299    -0.95100
O1555       O  0.91437677  0.41047680  0.66797172    -0.93500
O1556       O  0.81969378  0.48496839  0.40292675    -0.93800
O1557       O  0.78377286  0.02306049  0.34812409    -0.92600
C1558       C  0.88973781  0.40585421  0.64246886     1.16400
H1559       H  0.93565197  0.99674112  0.41177557     0.32400
H1560       H  0.86925855  0.04619725  0.63077937     0.43200
H1561       H  0.51088716  0.43614828  0.61586873     0.36800
H1562       H  0.58657821  0.06100476  0.64363397     0.33200
H1563       H  0.78821857  0.07668569  0.39051014     0.25000
H1564       H  0.52785327  0.12386084  0.58128311     0.31000
H1565       H  0.61365990  0.03778191  0.55811319     0.36900
H1566       H  0.83163216  0.98716280  0.42547625     0.31300
H1567       H  0.93203453  0.40098097  0.40487853     0.30200
H1568       H  0.51519237  0.38402108  0.35462697     0.31900
H1569       H  0.66473248  0.44723836  0.59233070     0.30900
H1570       H  0.78773556  0.00482930  0.66474213     0.34800
H1571       H  0.86361711  0.45029631  0.56336885     0.27600
H1572       H  0.58622404  0.07388468  0.41981073     0.31800
H1573       H  0.65925795  0.01580391  0.65596758     0.34700
H1574       H  0.91804888  0.43587180  0.42386926     0.27300
H1575       H  0.82174063  0.46278655  0.59647739     0.40100
H1576       H  0.92154883  0.12897890  0.66389329     0.30200
H1577       H  0.84195343  0.09729457  0.37663976     0.37800
H1578       H  0.61081367  0.42596383  0.60318413     0.29700
H1579       H  0.57578669  0.09911031  0.58485581     0.29700
H1580       H  0.62845891  0.06278957  0.38629010     0.30000
C1581       C  0.74847583  0.03612591  0.46669148    -0.10200
C1582       C  0.76343329  0.03665267  0.49934784     0.06000
C1583       C  0.73965375  0.01372371  0.52468220    -0.03900
C1584       C  0.70213502  0.48977203  0.51686406    -0.08400
C1585       C  0.68734704  0.48917592  0.48414610     0.05100
C1586       C  0.71097323  0.01219030  0.45888807    -0.03400
Br1587     Br  0.69595624  0.00954981  0.41303067    -0.03100
H1588       H  0.76621295  0.05423733  0.44730699     0.09000
H1589       H  0.68448510  0.47160902  0.53621633     0.07100
Br1590     Br  0.75517110  0.01614681  0.57047082    -0.03500
C1591       C  0.97085695  0.22920586  0.64964676    -0.10200
C1592       C  0.51442443  0.23972525  0.66583524     0.06000
C1593       C  0.51718293  0.27434719  0.34140936    -0.03900
C1594       C  0.97578888  0.29634087  0.66921528    -0.08400
C1595       C  0.93215929  0.28576757  0.65300812     0.05100
C1596       C  0.92958837  0.25121141  0.64406772    -0.03400
Br1597     Br  0.87262628  0.23071856  0.62419690    -0.03100
H1598       H  0.96863724  0.20334769  0.64058483     0.09000
H1599       H  0.97838357  0.32235513  0.34445848     0.07100
Br1600     Br  0.57382132  0.29465517  0.36171870    -0.03500
C1601       C  0.58250022  0.15433624  0.67586303     0.85500
C1602       C  0.53686814  0.18054391  0.67774329    -0.54800
C1603       C  0.55392197  0.21329372  0.67313440     0.08400
C1604       C  0.61706244  0.21696017  0.00362189     0.19300
C1605       C  0.62313892  0.16179363  0.97541585    -0.55500
C1606       C  0.64179412  0.19435223  0.97253301     0.08500
C1607       C  0.61232677  0.16513678  0.70487653    -0.55000
C1608       C  0.62987528  0.19835881  0.70233663     0.09100
H1609       H  0.99392139  0.17314641  0.68127476     0.13600
H1610       H  0.63387868  0.24288958  0.00033356    -0.00700
H1611       H  0.63205084  0.14366557  0.95407210     0.13900
H1612       H  0.61729930  0.14866450  0.72597993     0.13700
C1613       C  0.86375216  0.37131758  0.97551910     0.85500
C1614       C  0.82311735  0.36390819  0.67598480    -0.54800
C1615       C  0.80496907  0.33125026  0.67909132     0.08400
C1616       C  0.82982278  0.30863801  0.98168692     0.19300
C1617       C  0.90964978  0.34518250  0.97384221    -0.55500
C1618       C  0.89284290  0.31239085  0.97867627     0.08500
C1619       C  0.83372273  0.35999820  0.94668839    -0.55000
C1620       C  0.81631750  0.32671250  0.94961345     0.09100
H1621       H  0.81405424  0.38214546  0.69721768     0.13600
H1622       H  0.81323923  0.28268863  0.98531862    -0.00700
H1623       H  0.95266868  0.35270798  0.97035738     0.13900
H1624       H  0.82838843  0.37621509  0.92546957     0.13700
Zr1625     Zr  0.67535936  0.28845011  0.77562675     2.17500
O1626       O  0.57954229  0.29559172  0.77015650    -0.52400
O1627       O  0.73184733  0.31287104  0.72366362    -0.75600
O1628       O  0.64209134  0.34735110  0.78280707    -0.82300
O1629       O  0.67872587  0.19507175  0.74774121    -0.84100
O1630       O  0.66524389  0.36455168  0.83364332    -0.79700
O1631       O  0.65339863  0.24738244  0.73265263    -0.91400
O1632       O  0.82127106  0.30764194  0.72990373    -0.77300
O1633       O  0.74776052  0.31694490  0.79697480    -0.86800
O1634       O  0.75478377  0.25292332  0.76265493    -0.86500
O1635       O  0.64361701  0.29519520  0.83705155    -0.73300
O1636       O  0.65107764  0.23607411  0.80531544    -0.85400
Zr1637     Zr  0.77260435  0.23619969  0.87558808     2.26400
Zr1638     Zr  0.71683810  0.32274490  0.85795411     2.06300
Zr1639     Zr  0.73125975  0.20153771  0.79305432     2.10000
Zr1640     Zr  0.82636178  0.28123263  0.78418742     1.78800
O1641       O  0.67623975  0.15005191  0.80310273    -0.94200
O1642       O  0.87732683  0.33428134  0.78346776    -0.42000
O1643       O  0.80410767  0.22921024  0.81414393    -0.78600
O1644       O  0.79749182  0.28837107  0.84535094    -0.97300
O1645       O  0.69288509  0.27138104  0.88833697    -0.90600
O1646       O  0.70047539  0.20770646  0.85390565    -0.93500
C1647       C  0.78411895  0.31662160  0.71321236     1.00300
C1648       C  0.65599147  0.21485820  0.72907333     1.13200
C1649       C  0.64289211  0.36934908  0.80722249     1.04000
O1650       O  0.77031973  0.37498056  0.85224625    -0.95600
O1651       O  0.76586191  0.32943599  0.90494827    -0.91400
O1652       O  0.79390196  0.27738499  0.91894858    -0.84500
C1653       C  0.78979850  0.30985027  0.92315809     1.10600
O1654       O  0.53034365  0.25003621  0.85214011    -0.97600
Zr1655     Zr  0.62141206  0.24306746  0.86653076     1.88900
O1656       O  0.71544500  0.21254402  0.92791234    -0.74200
O1657       O  0.65043171  0.34563184  0.90647046    -0.53500
O1658       O  0.56601244  0.28068548  0.90883215    -0.98200
O1659       O  0.56944892  0.19027476  0.86760432    -0.55400
O1660       O  0.62613790  0.21759405  0.92133923    -0.74800
C1661       C  0.66308134  0.20895066  0.93834203     0.97600
O1662       O  0.86812501  0.22904525  0.88168323    -0.63600
O1663       O  0.79501016  0.17635461  0.74440671    -0.58400
O1664       O  0.80634642  0.17731750  0.86805126    -0.95100
O1665       O  0.78776084  0.16139058  0.81561124    -0.93500
O1666       O  0.88288965  0.24433143  0.74175961    -0.93800
O1667       O  0.91884947  0.27595070  0.79655941    -0.92600
C1668       C  0.80842558  0.15609918  0.84260715     1.16400
H1669       H  0.76516010  0.24847788  0.73807515     0.32400
H1670       H  0.82757257  0.29912827  0.85380894     0.43200
H1671       H  0.69318190  0.18579861  0.86451236     0.36800
H1672       H  0.61092333  0.30907370  0.84152868     0.33200
H1673       H  0.90361765  0.33395508  0.76105320     0.25000
H1674       H  0.66059000  0.36984332  0.90768830     0.31000
H1675       H  0.54510474  0.26542684  0.92639019     0.36900
H1676       H  0.90884380  0.25985153  0.72723924     0.31300
H1677       H  0.78108533  0.15302799  0.74224473     0.30200
H1678       H  0.69529386  0.13347773  0.78585269     0.31900
H1679       H  0.54951625  0.18814802  0.89183810     0.30900
H1680       H  0.92016426  0.25281165  0.80577513     0.34800
H1681       H  0.88688963  0.21830503  0.85973671     0.27600
H1682       H  0.56092171  0.30623936  0.79218565     0.31800
H1683       H  0.50354301  0.24454891  0.87346043     0.34700
H1684       H  0.78786570  0.18801403  0.72355969     0.27300
H1685       H  0.88357962  0.25227287  0.88058298     0.40100
H1686       H  0.78027914  0.37875866  0.82699031     0.30200
H1687       H  0.85044004  0.35206858  0.78072830     0.37800
H1688       H  0.59734275  0.17203907  0.86468709     0.29700
H1689       H  0.61490487  0.34580696  0.89835490     0.29700
H1690       H  0.56420171  0.27233408  0.77125904     0.30000
C1691       C  0.83207906  0.12091680  0.84326105     0.85500
C1692       C  0.87407155  0.11237168  0.80999408    -0.54800
C1693       C  0.88986034  0.07919866  0.80700553     0.08400
C1694       C  0.86338460  0.05765178  0.83818255     0.19300
C1695       C  0.78521787  0.09547490  0.84334318    -0.55500
C1696       C  0.80152142  0.06277429  0.84018155     0.08500
C1697       C  0.86005888  0.10979899  0.87301200    -0.55000
C1698       C  0.87648730  0.07632420  0.87048572     0.09100
H1699       H  0.88487135  0.13001303  0.78876047     0.13600
H1700       H  0.87621950  0.03065124  0.83575060    -0.00700
H1701       H  0.74279435  0.10282960  0.84355481     0.13900
H1702       H  0.86563509  0.12652622  0.89419685     0.13700
C1703       C  0.61965375  0.40451213  0.80616690     0.85500
C1704       C  0.66645074  0.42988060  0.80640842    -0.54800
C1705       C  0.65022519  0.46256079  0.80940794     0.08400
C1706       C  0.58853557  0.46777376  0.81064686     0.19300
C1707       C  0.57693064  0.41318600  0.83902260    -0.55500
C1708       C  0.56115157  0.44636350  0.84173230     0.08500
C1709       C  0.59260297  0.41544257  0.77599776    -0.55000
C1710       C  0.57636994  0.44892253  0.77814080     0.09100
H1711       H  0.70876444  0.42251111  0.80651124     0.13600
H1712       H  0.57580562  0.99477480  0.81274505    -0.00700
H1713       H  0.56569141  0.39563571  0.86030036     0.13900
H1714       H  0.58738668  0.39856542  0.75485023     0.13700
Zr1715     Zr  0.52204881  0.03959236  0.70937960     2.17500
O1716       O  0.59944461  0.05414586  0.73693303    -0.52400
O1717       O  0.96218687  0.06293071  0.76095517    -0.75600
O1718       O  0.55881482  0.09770047  0.69883580    -0.82300
O1719       O  0.52509083  0.44489188  0.73353301    -0.84100
O1720       O  0.53157513  0.11534700  0.98323563    -0.79700
O1721       O  0.55232820  0.99740722  0.74782570    -0.91400
O1722       O  0.87328774  0.05274344  0.75629794    -0.77300
O1723       O  0.94808183  0.06613854  0.68869583    -0.86800
O1724       O  0.94528393  0.00198092  0.72073197    -0.86500
O1725       O  0.55439597  0.04700960  0.98133666    -0.73300
O1726       O  0.55050600  0.48813615  0.67762446    -0.85400
Zr1727     Zr  0.92883213  0.48497131  0.93967754     2.26400
Zr1728     Zr  0.97854475  0.07243524  0.96113365     2.06300
Zr1729     Zr  0.97264416  0.45144895  0.68817840     2.10000
Zr1730     Zr  0.87211542  0.02813085  0.69965073     1.78800
O1731       O  0.53269674  0.40264013  0.67277693    -0.94200
O1732       O  0.81836306  0.08015955  0.70377315    -0.42000
O1733       O  0.89753473  0.47696162  0.66759892    -0.78600
O1734       O  0.90003101  0.03599462  0.97219475    -0.97300
O1735       O  0.00627402  0.02199885  0.92850697    -0.90600
O1736       O  0.00256918  0.45812701  0.96051492    -0.93500
C1737       C  0.91006938  0.06391947  0.77258502     1.00300
C1738       C  0.54949230  0.46495606  0.75158535     1.13200
C1739       C  0.55685605  0.11969940  0.67520311     1.04000
O1740       O  0.91842507  0.12151904  0.97381421    -0.95600
O1741       O  0.92916958  0.07977240  0.91442404    -0.91400
O1742       O  0.89942336  0.02756933  0.90101188    -0.84500
C1743       C  0.90366625  0.05998188  0.89676140     1.10600
O1744       O  0.66705786  0.00022553  0.96878795    -0.97600
Zr1745     Zr  0.57910748  0.49559027  0.94978153     1.88900
O1746       O  0.98882437  0.46216998  0.88793265    -0.74200
O1747       O  0.53846213  0.09897641  0.91220140    -0.53500
O1748       O  0.63205333  0.03693586  0.91154185    -0.98200
O1749       O  0.63394749  0.44386652  0.94487598    -0.55400
O1750       O  0.57767509  0.47256140  0.89254699    -0.74800
C1751       C  0.54088752  0.46158120  0.87617055     0.97600
O1752       O  0.85329365  0.47085383  0.91034782    -0.63600
O1753       O  0.91321646  0.42273993  0.73589185    -0.58400
O1754       O  0.88873232  0.42772036  0.95170326    -0.95100
O1755       O  0.91423779  0.41071931  0.00134096    -0.93500
O1756       O  0.81926715  0.48607549  0.73687378    -0.93800
O1757       O  0.78334554  0.02374269  0.68180970    -0.92600
C1758       C  0.88944540  0.40609956  0.97590042     1.16400
H1759       H  0.93530135  0.99703019  0.74512638     0.32400
H1760       H  0.86923699  0.04615993  0.96431014     0.43200
H1761       H  0.51111083  0.43638177  0.94930706     0.36800
H1762       H  0.58671243  0.06128176  0.97706538     0.33200
H1763       H  0.78919454  0.07769589  0.72463398     0.25000
H1764       H  0.52770125  0.12316258  0.91383847     0.31000
H1765       H  0.61430769  0.03767649  0.89101013     0.36900
H1766       H  0.83230421  0.98782874  0.75910371     0.31300
H1767       H  0.93148798  0.40077213  0.73787637     0.30200
H1768       H  0.51426277  0.38403179  0.68725059     0.31900
H1769       H  0.66495138  0.44758927  0.92529645     0.30900
H1770       H  0.78858714  0.00525256  0.99697158     0.34800
H1771       H  0.86550273  0.45080009  0.89555063     0.27600
H1772       H  0.58749151  0.07382266  0.75235766     0.31800
H1773       H  0.65948848  0.01481888  0.98980935     0.34700
H1774       H  0.91721665  0.43553319  0.75708219     0.27300
H1775       H  0.82270617  0.46271463  0.92845427     0.40100
H1776       H  0.92094813  0.12853907  0.99772157     0.30200
H1777       H  0.84301107  0.09798796  0.71016086     0.37800
H1778       H  0.61110758  0.42627909  0.93626369     0.29700
H1779       H  0.57571133  0.09871825  0.91799214     0.29700
H1780       H  0.62894946  0.06283619  0.71843573     0.30000
C1781       C  0.74914142  0.03570308  0.79970284    -0.10200
C1782       C  0.76410203  0.03629686  0.83236683     0.06000
C1783       C  0.74044089  0.01330624  0.85767948    -0.03900
C1784       C  0.70280339  0.48940609  0.84993170    -0.08400
C1785       C  0.68767833  0.48894441  0.81731606     0.05100
C1786       C  0.71145604  0.01182629  0.79198036    -0.03400
Br1787     Br  0.69559030  0.00936140  0.74631843    -0.03100
H1788       H  0.76678160  0.05382296  0.78031653     0.09000
H1789       H  0.68513752  0.47125996  0.86929457     0.07100
Br1790     Br  0.75590839  0.01572763  0.90345892    -0.03500
C1791       C  0.97139240  0.22954439  0.98254455    -0.10200
C1792       C  0.51479657  0.24006525  0.99893750     0.06000
C1793       C  0.51700256  0.27425927  0.67484817    -0.03900
C1794       C  0.97591998  0.29661290  0.00246308    -0.08400
C1795       C  0.93238243  0.28604014  0.98617998     0.05100
C1796       C  0.93000006  0.25151157  0.97707697    -0.03400
Br1797     Br  0.87283749  0.23092663  0.95746991    -0.03100
H1798       H  0.96933337  0.20370652  0.97338417     0.09000
H1799       H  0.97802041  0.32223103  0.67815898     0.07100
Br1800     Br  0.57417410  0.29457343  0.69465998    -0.03500
C1801       C  0.58219713  0.65450318  0.00920461     0.85500
C1802       C  0.53672478  0.68083404  0.01102116    -0.54800
C1803       C  0.55402404  0.71355390  0.00639094     0.08400
C1804       C  0.61690544  0.71689708  0.33702418     0.19300
C1805       C  0.62347258  0.66169677  0.30888827    -0.55500
C1806       C  0.64188304  0.69431363  0.30599458     0.08500
C1807       C  0.61207819  0.66523520  0.03821021    -0.55000
C1808       C  0.62983670  0.69840590  0.03565882     0.09100
H1809       H  0.99360653  0.67351027  0.01466133     0.13600
H1810       H  0.63361301  0.74284076  0.33369738    -0.00700
H1811       H  0.63261309  0.64355259  0.28757290     0.13900
H1812       H  0.61694115  0.64875067  0.05932612     0.13700
C1813       C  0.86411150  0.87126433  0.30882619     0.85500
C1814       C  0.82311786  0.86403621  0.00945226    -0.54800
C1815       C  0.80513567  0.83135273  0.01257039     0.08400
C1816       C  0.83006584  0.80862147  0.31492377     0.19300
C1817       C  0.90995126  0.84511342  0.30714351    -0.55500
C1818       C  0.89309270  0.81232496  0.31191364     0.08500
C1819       C  0.83416428  0.86001940  0.27995065    -0.55000
C1820       C  0.81666875  0.82675895  0.28285904     0.09100
H1821       H  0.81404558  0.88226265  0.03069578     0.13600
H1822       H  0.81342314  0.78268605  0.31851652    -0.00700
H1823       H  0.95297804  0.85263138  0.30360999     0.13900
H1824       H  0.82892691  0.87626169  0.25873014     0.13700
Zr1825     Zr  0.67575520  0.78822644  0.10897441     2.17500
O1826       O  0.57988772  0.79538109  0.10371044    -0.52400
O1827       O  0.73210068  0.81246260  0.05690277    -0.75600
O1828       O  0.64304132  0.84720756  0.11585369    -0.82300
O1829       O  0.67858432  0.69500371  0.08117388    -0.84100
O1830       O  0.66567744  0.86440259  0.16683484    -0.79700
O1831       O  0.65363900  0.74734795  0.06594130    -0.91400
O1832       O  0.82141544  0.80814386  0.06362335    -0.77300
O1833       O  0.74805335  0.81676862  0.13036983    -0.86800
O1834       O  0.75512478  0.75271716  0.09604947    -0.86500
O1835       O  0.64397875  0.79498292  0.17036225    -0.73300
O1836       O  0.65129191  0.73586518  0.13867671    -0.85400
Zr1837     Zr  0.77278088  0.73617812  0.20905932     2.26400
Zr1838     Zr  0.71701470  0.82262006  0.19133629     2.06300
Zr1839     Zr  0.73146679  0.70136141  0.12642942     2.10000
Zr1840     Zr  0.82663442  0.78105811  0.11758703     1.78800
O1841       O  0.67724597  0.64950876  0.13611137    -0.94200
O1842       O  0.87785979  0.83398271  0.11707905    -0.42000
O1843       O  0.80416168  0.72910142  0.14762888    -0.78600
O1844       O  0.79770402  0.78828269  0.17874841    -0.97300
O1845       O  0.69303476  0.77128588  0.22173260    -0.90600
O1846       O  0.70075031  0.70758927  0.18731064    -0.93500
C1847       C  0.78431163  0.81670622  0.04670257     1.00300
C1848       C  0.65602163  0.71482458  0.06242226     1.13200
C1849       C  0.64363340  0.86920068  0.14029257     1.04000
O1850       O  0.77023375  0.87496135  0.18637438    -0.95600
O1851       O  0.76610410  0.82952230  0.23826010    -0.91400
O1852       O  0.79421278  0.77748372  0.25223970    -0.84500
C1853       C  0.79011495  0.80994380  0.25643071     1.10600
O1854       O  0.53081905  0.75063565  0.18533922    -0.97600
Zr1855     Zr  0.62163973  0.74289972  0.19989829     1.88900
O1856       O  0.71554703  0.71270599  0.26147905    -0.74200
O1857       O  0.64949564  0.84499866  0.23956765    -0.53500
O1858       O  0.56683970  0.78049872  0.24247781    -0.98200
O1859       O  0.56964599  0.69008094  0.20103708    -0.55400
O1860       O  0.62625694  0.71744775  0.25473972    -0.74800
C1861       C  0.66318694  0.70895063  0.27182166     0.97600
O1862       O  0.86844062  0.72938858  0.21500742    -0.63600
O1863       O  0.79570681  0.67712467  0.07745188    -0.58400
O1864       O  0.80679184  0.67739004  0.20166646    -0.95100
O1865       O  0.78807541  0.66145458  0.14924951    -0.93500
O1866       O  0.88202883  0.74417898  0.07456063    -0.93800
O1867       O  0.91915846  0.77501898  0.12975350    -0.92600
C1868       C  0.80884160  0.65618893  0.17621736     1.16400
H1869       H  0.76553157  0.74829021  0.07146820     0.32400
H1870       H  0.82778137  0.79906017  0.18719186     0.43200
H1871       H  0.69347906  0.68568895  0.19793937     0.36800
H1872       H  0.61129442  0.80886925  0.17478383     0.33200
H1873       H  0.90349987  0.83397380  0.09441231     0.25000
H1874       H  0.66009533  0.86905312  0.24154187     0.31000
H1875       H  0.54311262  0.76522884  0.25870468     0.36900
H1876       H  0.91075997  0.75920269  0.06169659     0.31300
H1877       H  0.78423326  0.65314922  0.07626750     0.30200
H1878       H  0.69510775  0.63360260  0.11775409     0.31900
H1879       H  0.54828190  0.68857418  0.22498267     0.30900
H1880       H  0.92076788  0.75142439  0.13773204     0.34800
H1881       H  0.88718313  0.71857665  0.19309599     0.27600
H1882       H  0.56149912  0.80639166  0.12559595     0.31800
H1883       H  0.50383045  0.74365253  0.20602920     0.34700
H1884       H  0.78616412  0.68749346  0.05656984     0.27300
H1885       H  0.88375763  0.75265403  0.21375884     0.40100
H1886       H  0.77939221  0.87939202  0.16121161     0.30200
H1887       H  0.85078777  0.85188515  0.11503351     0.37800
H1888       H  0.59734165  0.67180868  0.19934304     0.29700
H1889       H  0.61447264  0.84582151  0.23088830     0.29700
H1890       H  0.56439963  0.77215612  0.10523747     0.30000
C1891       C  0.83232950  0.62098632  0.17685445     0.85500
C1892       C  0.87418592  0.61235263  0.14354533    -0.54800
C1893       C  0.88957985  0.57911276  0.14047866     0.08400
C1894       C  0.86298119  0.55761140  0.17167785     0.19300
C1895       C  0.78520305  0.59574851  0.17698563    -0.55500
C1896       C  0.80112546  0.56300200  0.17377657     0.08500
C1897       C  0.86027364  0.60971166  0.20655138    -0.55000
C1898       C  0.87644555  0.57618693  0.20396080     0.09100
H1899       H  0.88518704  0.63002095  0.12235409     0.13600
H1900       H  0.87552256  0.53056085  0.16920356    -0.00700
H1901       H  0.74284143  0.60327986  0.17724910     0.13900
H1902       H  0.86608713  0.62639173  0.22772095     0.13700
C1903       C  0.62042515  0.90434826  0.13914442     0.85500
C1904       C  0.66716549  0.92977625  0.13941626    -0.54800
C1905       C  0.65084608  0.96245907  0.14230610     0.08400
C1906       C  0.58917169  0.96756828  0.14353704     0.19300
C1907       C  0.57760170  0.91301530  0.17196226    -0.55500
C1908       C  0.56184483  0.94619297  0.17468916     0.08500
C1909       C  0.59346423  0.91520431  0.10890943    -0.55000
C1910       C  0.57720341  0.94867758  0.11100115     0.09100
H1911       H  0.70945920  0.92245189  0.13963312     0.13600
H1912       H  0.57617362  0.49455839  0.14574930    -0.00700
H1913       H  0.56632886  0.89546134  0.19323456     0.13900
H1914       H  0.58836064  0.89830082  0.08775565     0.13700
Zr1915     Zr  0.52207841  0.53969956  0.04282229     2.17500
O1916       O  0.59855905  0.55490809  0.07104528    -0.52400
O1917       O  0.96182687  0.56289220  0.09433744    -0.75600
O1918       O  0.55872593  0.59783042  0.03213905    -0.82300
O1919       O  0.52586772  0.94469278  0.06642719    -0.84100
O1920       O  0.53194670  0.61513151  0.31668595    -0.79700
O1921       O  0.55302152  0.49724560  0.08082463    -0.91400
O1922       O  0.87288195  0.55263709  0.08976084    -0.77300
O1923       O  0.94788919  0.56592200  0.02210790    -0.86800
O1924       O  0.94535004  0.50204100  0.05421137    -0.86500
O1925       O  0.55455601  0.54684873  0.31464599    -0.73300
O1926       O  0.55061925  0.98831193  0.01091327    -0.85400
Zr1927     Zr  0.92954998  0.98478645  0.27281569     2.26400
Zr1928     Zr  0.97874939  0.57235970  0.29450406     2.06300
Zr1929     Zr  0.97266782  0.95159549  0.02154820     2.10000
Zr1930     Zr  0.87191829  0.52787890  0.03311435     1.78800
O1931       O  0.53153864  0.90233168  0.00600438    -0.94200
O1932       O  0.81673907  0.57929330  0.03712940    -0.42000
O1933       O  0.89731332  0.97678186  0.00096799    -0.78600
O1934       O  0.90044435  0.53574204  0.30537947    -0.97300
O1935       O  0.00677682  0.52196682  0.26179719    -0.90600
O1936       O  0.00316716  0.95785178  0.29369284    -0.93500
C1937       C  0.90970376  0.56384343  0.10601714     1.00300
C1938       C  0.55040335  0.96472631  0.08441954     1.13200
C1939       C  0.55652766  0.61986788  0.00857695     1.04000
O1940       O  0.91862957  0.62146054  0.30740592    -0.95600
O1941       O  0.92901357  0.57961677  0.24795146    -0.91400
O1942       O  0.90003883  0.52734063  0.23414847    -0.84500
C1943       C  0.90382393  0.55979655  0.23012641     1.10600
O1944       O  0.66729378  0.49974171  0.30236455    -0.97600
Zr1945     Zr  0.57961266  0.99546226  0.28298164     1.88900
O1946       O  0.98956703  0.96206128  0.22100150    -0.74200
O1947       O  0.53779186  0.59943466  0.24558733    -0.53500
O1948       O  0.63248220  0.53701439  0.24513499    -0.98200
O1949       O  0.63431253  0.94367635  0.27802737    -0.55400
O1950       O  0.57842888  0.97237680  0.22562989    -0.74800
C1951       C  0.54165413  0.96142604  0.20919307     0.97600
O1952       O  0.85344993  0.97070534  0.24399254    -0.63600
O1953       O  0.91344821  0.92368794  0.06993676    -0.58400
O1954       O  0.88976850  0.92747028  0.28483881    -0.95100
O1955       O  0.91426093  0.91064423  0.33484536    -0.93500
O1956       O  0.81961466  0.98530404  0.07007808    -0.93800
O1957       O  0.78347678  0.52348062  0.01480386    -0.92600
C1958       C  0.88988904  0.90598488  0.30923117     1.16400
H1959       H  0.93541899  0.49706956  0.07860442     0.32400
H1960       H  0.86957046  0.54582096  0.29750926     0.43200
H1961       H  0.51184226  0.93615139  0.28236352     0.36800
H1962       H  0.58684606  0.56114195  0.31041824     0.33200
H1963       H  0.78739389  0.57652147  0.05784352     0.25000
H1964       H  0.52637529  0.62350749  0.24726932     0.31000
H1965       H  0.61412484  0.53833508  0.22489823     0.36900
H1966       H  0.83103022  0.48806343  0.09281308     0.31300
H1967       H  0.93067695  0.90130615  0.07151197     0.30200
H1968       H  0.51433362  0.88435554  0.02184424     0.31900
H1969       H  0.66534943  0.94740880  0.25847084     0.30900
H1970       H  0.78708055  0.50239006  0.33312833     0.34800
H1971       H  0.86539927  0.95062303  0.22917925     0.27600
H1972       H  0.58628722  0.57480028  0.08608789     0.31800
H1973       H  0.66079457  0.51638813  0.32174657     0.34700
H1974       H  0.91900283  0.93612573  0.09101793     0.27300
H1975       H  0.82306261  0.96262441  0.26226843     0.40100
H1976       H  0.92198131  0.62881145  0.33108089     0.30200
H1977       H  0.84077614  0.59736498  0.04372256     0.37800
H1978       H  0.61146525  0.92612217  0.26936858     0.29700
H1979       H  0.57508274  0.59956826  0.25132555     0.29700
H1980       H  0.62844170  0.56336961  0.05265089     0.30000
C1981       C  0.74796901  0.53654992  0.13336673    -0.10200
C1982       C  0.76336509  0.53675325  0.16590538     0.06000
C1983       C  0.74030140  0.51334791  0.19093994    -0.03900
C1984       C  0.70313337  0.98927578  0.18297643    -0.08400
C1985       C  0.68796209  0.98897372  0.15037631     0.05100
C1986       C  0.71086031  0.51243475  0.12536542    -0.03400
Br1987     Br  0.69561400  0.51005947  0.07955038    -0.03100
H1988       H  0.76520152  0.55498568  0.11420681     0.09000
H1989       H  0.68594745  0.97081458  0.20213353     0.07100
Br1990     Br  0.75597695  0.51536467  0.23667589    -0.03500
C1991       C  0.97092195  0.72926134  0.31623358    -0.10200
C1992       C  0.51457292  0.73980758  0.33241866     0.06000
C1993       C  0.51715459  0.77458333  0.00813603    -0.03900
C1994       C  0.97627921  0.79646904  0.33546460    -0.08400
C1995       C  0.93258591  0.78591985  0.31933372     0.05100
C1996       C  0.92983778  0.75134181  0.31050050    -0.03400
Br1997     Br  0.87282270  0.73090149  0.29065081    -0.03100
H1998       H  0.96854547  0.70336728  0.30730969     0.09000
H1999       H  0.97800393  0.82250617  0.01149834     0.07100
Br2000     Br  0.57398102  0.79482126  0.02832746    -0.03500
C2001       C  0.58245299  0.65435455  0.34269022     0.85500
C2002       C  0.53681219  0.68056718  0.34443974    -0.54800
C2003       C  0.55389711  0.71332441  0.33981791     0.08400
C2004       C  0.61707077  0.71685568  0.67024295     0.19300
C2005       C  0.62349046  0.66171677  0.64199918    -0.55500
C2006       C  0.64194234  0.69432242  0.63915537     0.08500
C2007       C  0.61218076  0.66524386  0.37171966    -0.55000
C2008       C  0.62972385  0.69846356  0.36911571     0.09100
H2009       H  0.99382167  0.67311765  0.34802934     0.13600
H2010       H  0.63387316  0.74276905  0.66693207    -0.00700
H2011       H  0.63254315  0.64361403  0.62064203     0.13900
H2012       H  0.61716367  0.64881826  0.39285612     0.13700
C2013       C  0.86392343  0.87110280  0.64209924     0.85500
C2014       C  0.82341613  0.86401600  0.34274861    -0.54800
C2015       C  0.80536026  0.83135134  0.34585571     0.08400
C2016       C  0.82973794  0.80847971  0.64825586     0.19300
C2017       C  0.90968736  0.84491185  0.64058384    -0.55500
C2018       C  0.89273989  0.81214681  0.64542600     0.08500
C2019       C  0.83407915  0.85981918  0.61318717    -0.55000
C2020       C  0.81649004  0.82658098  0.61614507     0.09100
H2021       H  0.81431668  0.88224420  0.36398893     0.13600
H2022       H  0.81301914  0.78255930  0.65185536    -0.00700
H2023       H  0.95271679  0.85239151  0.63717797     0.13900
H2024       H  0.82887292  0.87604023  0.59194422     0.13700
Zr2025     Zr  0.67579251  0.78835210  0.44228860     2.17500
O2026       O  0.57992155  0.79582913  0.43715835    -0.52400
O2027       O  0.73227746  0.81202049  0.38994096    -0.75600
O2028       O  0.64374742  0.84751174  0.44914397    -0.82300
O2029       O  0.67895015  0.69519850  0.41432588    -0.84100
O2030       O  0.66494204  0.86439822  0.50062408    -0.79700
O2031       O  0.65333899  0.74749294  0.39935253    -0.91400
O2032       O  0.82143679  0.80877688  0.39724847    -0.77300
O2033       O  0.74782412  0.81696347  0.46387917    -0.86800
O2034       O  0.75534371  0.75298059  0.42938511    -0.86500
O2035       O  0.64366441  0.79488245  0.50369641    -0.73300
O2036       O  0.65155033  0.73579254  0.47168080    -0.85400
Zr2037     Zr  0.77263865  0.73610410  0.54223580     2.26400
Zr2038     Zr  0.71651054  0.82256741  0.52485116     2.06300
Zr2039     Zr  0.73192826  0.70145487  0.45948080     2.10000
Zr2040     Zr  0.82659989  0.78141296  0.45108718     1.78800
O2041       O  0.67825468  0.64939078  0.46924804    -0.94200
O2042       O  0.87787938  0.83420142  0.45164094    -0.42000
O2043       O  0.80432009  0.72930699  0.48084788    -0.78600
O2044       O  0.79745822  0.78841413  0.51225086    -0.97300
O2045       O  0.69265145  0.77104454  0.55492768    -0.90600
O2046       O  0.70086593  0.70742457  0.52034017    -0.93500
C2047       C  0.78443679  0.81675219  0.38000717     1.00300
C2048       C  0.65599514  0.71497806  0.39575582     1.13200
C2049       C  0.64362137  0.86934874  0.47382434     1.04000
O2050       O  0.76896942  0.87520776  0.51952623    -0.95600
O2051       O  0.76555276  0.82941084  0.57176667    -0.91400
O2052       O  0.79397747  0.77735635  0.58549039    -0.84500
C2053       C  0.78974818  0.80980112  0.58980018     1.10600
O2054       O  0.53112181  0.74967391  0.51760437    -0.97600
Zr2055     Zr  0.62155361  0.74256999  0.53288572     1.88900
O2056       O  0.71564305  0.71245809  0.59456508    -0.74200
O2057       O  0.64977701  0.84465025  0.57366627    -0.53500
O2058       O  0.56453200  0.77947126  0.57509747    -0.98200
O2059       O  0.57018073  0.68951337  0.53406062    -0.55400
O2060       O  0.62636919  0.71769012  0.58798912    -0.74800
C2061       C  0.66327232  0.70898186  0.60500294     0.97600
O2062       O  0.86806845  0.72864619  0.54839463    -0.63600
O2063       O  0.79668347  0.67751011  0.41057320    -0.58400
O2064       O  0.80643051  0.67725630  0.53461485    -0.95100
O2065       O  0.78864835  0.66142131  0.48194455    -0.93500
O2066       O  0.88239040  0.74521228  0.40758461    -0.93800
O2067       O  0.91912498  0.77440507  0.46294371    -0.92600
C2068       C  0.80896065  0.65611977  0.50907137     1.16400
H2069       H  0.76585256  0.74862529  0.40479735     0.32400
H2070       H  0.82746747  0.79919369  0.52076573     0.43200
H2071       H  0.69369105  0.68549068  0.53090976     0.36800
H2072       H  0.61091520  0.80871216  0.50812773     0.33200
H2073       H  0.90440991  0.83416093  0.42932541     0.25000
H2074       H  0.65907891  0.86899819  0.57489949     0.31000
H2075       H  0.54358792  0.76392921  0.59234929     0.36900
H2076       H  0.91149687  0.76034552  0.39529952     0.31300
H2077       H  0.78545596  0.65349799  0.40927886     0.30200
H2078       H  0.69614679  0.63355079  0.45083544     0.31900
H2079       H  0.55013739  0.68745366  0.55827653     0.30900
H2080       H  0.91960335  0.75113274  0.47196752     0.34800
H2081       H  0.88676349  0.71763223  0.52658115     0.27600
H2082       H  0.56177310  0.80718466  0.45890550     0.31800
H2083       H  0.50390346  0.74301332  0.53831761     0.34700
H2084       H  0.78719598  0.68789465  0.38968470     0.27300
H2085       H  0.88377604  0.75181197  0.54702765     0.40100
H2086       H  0.77782025  0.87957958  0.49434334     0.30200
H2087       H  0.85118473  0.85217416  0.44909996     0.37800
H2088       H  0.59822217  0.67137056  0.53129749     0.29700
H2089       H  0.61411566  0.84431594  0.56571274     0.29700
H2090       H  0.56412966  0.77268277  0.43905144     0.30000
C2091       C  0.83241552  0.62093086  0.50984444     0.85500
C2092       C  0.87420913  0.61215451  0.47655363    -0.54800
C2093       C  0.88956797  0.57890908  0.47363825     0.08400
C2094       C  0.86301438  0.55754509  0.50493313     0.19300
C2095       C  0.78526327  0.59569262  0.51013131    -0.55500
C2096       C  0.80117535  0.56293919  0.50708561     0.08500
C2097       C  0.86042354  0.60979093  0.53956887    -0.55000
C2098       C  0.87656245  0.57625821  0.53709139     0.09100
H2099       H  0.88521596  0.62972566  0.45527657     0.13600
H2100       H  0.87552372  0.53048595  0.50257460    -0.00700
H2101       H  0.74290041  0.60321238  0.51038051     0.13900
H2102       H  0.86628954  0.62654883  0.56066772     0.13700
C2103       C  0.62029834  0.90447237  0.47271442     0.85500
C2104       C  0.66680687  0.93000591  0.47319981    -0.54800
C2105       C  0.65022876  0.96264093  0.47615496     0.08400
C2106       C  0.58855835  0.96760509  0.47718945     0.19300
C2107       C  0.57720204  0.91298560  0.50545834    -0.55500
C2108       C  0.56112302  0.94610876  0.50820764     0.08500
C2109       C  0.59352869  0.91531212  0.44240865    -0.55000
C2110       C  0.57698550  0.94872268  0.44455656     0.09100
H2111       H  0.70913377  0.92278625  0.47344964     0.13600
H2112       H  0.57562929  0.49458199  0.47930953    -0.00700
H2113       H  0.56598152  0.89538664  0.52669486     0.13900
H2114       H  0.58870406  0.89843340  0.42117872     0.13700
Zr2115     Zr  0.52222263  0.53948766  0.37610958     2.17500
O2116       O  0.59849532  0.55416800  0.40464772    -0.52400
O2117       O  0.96186487  0.56259268  0.42761108    -0.75600
O2118       O  0.55906736  0.59761695  0.36562410    -0.82300
O2119       O  0.52593817  0.94459354  0.39987374    -0.84100
O2120       O  0.53194542  0.61519952  0.64981721    -0.79700
O2121       O  0.55295883  0.49717733  0.41425085    -0.91400
O2122       O  0.87296664  0.55226021  0.42299306    -0.77300
O2123       O  0.94805400  0.56578087  0.35549390    -0.86800
O2124       O  0.94566116  0.50168913  0.38740136    -0.86500
O2125       O  0.55420231  0.54679943  0.64791656    -0.73300
O2126       O  0.55103394  0.98815744  0.34415819    -0.85400
Zr2127     Zr  0.92873331  0.98486828  0.60627709     2.26400
Zr2128     Zr  0.97863972  0.57244785  0.62766386     2.06300
Zr2129     Zr  0.97326374  0.95133029  0.35471715     2.10000
Zr2130     Zr  0.87228970  0.52758643  0.36628898     1.78800
O2131       O  0.53270793  0.90224223  0.33920243    -0.94200
O2132       O  0.81767467  0.57921724  0.36986523    -0.42000
O2133       O  0.89812412  0.97665448  0.33406346    -0.78600
O2134       O  0.90008410  0.53602695  0.63866544    -0.97300
O2135       O  0.00626027  0.52188766  0.59514237    -0.90600
O2136       O  0.00229218  0.95786291  0.62716241    -0.93500
C2137       C  0.90973918  0.56351695  0.43925813     1.00300
C2138       C  0.55024446  0.96468798  0.41793467     1.13200
C2139       C  0.55691377  0.61966443  0.34205458     1.04000
O2140       O  0.91755749  0.62111695  0.64044831    -0.95600
O2141       O  0.92970161  0.57968119  0.58075870    -0.91400
O2142       O  0.89941622  0.52751338  0.56762304    -0.84500
C2143       C  0.90389182  0.55990623  0.56326621     1.10600
O2144       O  0.66651427  0.50020916  0.63583381    -0.97600
Zr2145     Zr  0.57888818  0.99528579  0.61645870     1.88900
O2146       O  0.98870119  0.96244855  0.55424739    -0.74200
O2147       O  0.53846738  0.59979882  0.57928863    -0.53500
O2148       O  0.63175650  0.53676641  0.57846002    -0.98200
O2149       O  0.63349264  0.94348761  0.61187755    -0.55400
O2150       O  0.57758823  0.97172285  0.55937650    -0.74800
C2151       C  0.54079834  0.96127298  0.54271543     0.97600
O2152       O  0.85215732  0.97052499  0.57789481    -0.63600
O2153       O  0.91380177  0.92309362  0.40277735    -0.58400
O2154       O  0.88921635  0.92743706  0.61821062    -0.95100
O2155       O  0.91428168  0.91049858  0.66800097    -0.93500
O2156       O  0.81959848  0.98507085  0.40292629    -0.93800
O2157       O  0.78382967  0.52293052  0.34807467    -0.92600
C2158       C  0.88970382  0.90585562  0.64247627     1.16400
H2159       H  0.93567445  0.49670441  0.41178868     0.32400
H2160       H  0.86929114  0.54619589  0.63078063     0.43200
H2161       H  0.51080181  0.93613539  0.61588177     0.36800
H2162       H  0.58656629  0.56102847  0.64364263     0.33200
H2163       H  0.78792653  0.57649287  0.39037754     0.25000
H2164       H  0.52797651  0.62402183  0.58150564     0.31000
H2165       H  0.61350344  0.53791934  0.55816903     0.36900
H2166       H  0.83165599  0.48710339  0.42549563     0.31300
H2167       H  0.93170663  0.90100638  0.40477131     0.30200
H2168       H  0.51503725  0.88399860  0.35451528     0.31900
H2169       H  0.66451698  0.94709549  0.59228182     0.30900
H2170       H  0.78797179  0.50490985  0.66452502     0.34800
H2171       H  0.86377603  0.95027130  0.56326615     0.27600
H2172       H  0.58609477  0.57390507  0.41988539     0.31800
H2173       H  0.65914045  0.51578325  0.65611204     0.34700
H2174       H  0.91822108  0.93588107  0.42389052     0.27300
H2175       H  0.82179883  0.96271963  0.59634514     0.40100
H2176       H  0.92177797  0.62909501  0.66377058     0.30200
H2177       H  0.84165546  0.59718702  0.37671901     0.37800
H2178       H  0.61059738  0.92587244  0.60335692     0.29700
H2179       H  0.57581341  0.59913204  0.58491146     0.29700
H2180       H  0.62839234  0.56283113  0.38638743     0.30000
C2181       C  0.74849181  0.53612494  0.46669338    -0.10200
C2182       C  0.76340705  0.53666656  0.49936248     0.06000
C2183       C  0.73965426  0.51371941  0.52468501    -0.03900
C2184       C  0.70206914  0.98980872  0.51688356    -0.08400
C2185       C  0.68723536  0.98922938  0.48417880     0.05100
C2186       C  0.71105318  0.51215737  0.45886779    -0.03400
Br2187     Br  0.69602618  0.50952712  0.41301014    -0.03100
H2188       H  0.76620802  0.55425099  0.44731791     0.09000
H2189       H  0.68441271  0.97165290  0.53624185     0.07100
Br2190     Br  0.75513850  0.51615523  0.57048186    -0.03500
C2191       C  0.97077791  0.72918987  0.64973558    -0.10200
C2192       C  0.51449098  0.73972376  0.66582983     0.06000
C2193       C  0.51725315  0.77436188  0.34138135    -0.03900
C2194       C  0.97572566  0.79632747  0.66928977    -0.08400
C2195       C  0.93209860  0.78575572  0.65308351     0.05100
C2196       C  0.92951472  0.75119658  0.64414889    -0.03400
Br2197     Br  0.87255340  0.73069810  0.62427350    -0.03100
H2198       H  0.96854951  0.70332857  0.64068422     0.09000
H2199       H  0.97862698  0.82236832  0.34435112     0.07100
Br2200     Br  0.57385957  0.79462989  0.36174427    -0.03500
C2201       C  0.58257976  0.65433347  0.67583431     0.85500
C2202       C  0.53695407  0.68054746  0.67773649    -0.54800
C2203       C  0.55400977  0.71329522  0.67311336     0.08400
C2204       C  0.61708233  0.71695308  0.00358058     0.19300
C2205       C  0.62318104  0.66177714  0.97538416    -0.55500
C2206       C  0.64184896  0.69433477  0.97250332     0.08500
C2207       C  0.61245046  0.66512912  0.70482440    -0.55000
C2208       C  0.63000230  0.69834940  0.70227301     0.09100
H2209       H  0.99387305  0.67313746  0.68136966     0.13600
H2210       H  0.63391659  0.74287732  0.00029535    -0.00700
H2211       H  0.63210134  0.64364594  0.95404346     0.13900
H2212       H  0.61743896  0.64865831  0.72592553     0.13700
C2213       C  0.86373942  0.87130576  0.97550704     0.85500
C2214       C  0.82304893  0.86392158  0.67597722    -0.54800
C2215       C  0.80490658  0.83126260  0.67908518     0.08400
C2216       C  0.82985169  0.80861790  0.98164721     0.19300
C2217       C  0.90965498  0.84518420  0.97382593    -0.55500
C2218       C  0.89286691  0.81238977  0.97865002     0.08500
C2219       C  0.83373705  0.85998544  0.94666184    -0.55000
C2220       C  0.81635853  0.82669370  0.94956917     0.09100
H2221       H  0.81395784  0.88216507  0.69720292     0.13600
H2222       H  0.81328151  0.78266563  0.98526982    -0.00700
H2223       H  0.95266921  0.85271952  0.97034982     0.13900
H2224       H  0.82840438  0.87620609  0.92544563     0.13700
Zr2225     Zr  0.67535229  0.78841122  0.77559979     2.17500
O2226       O  0.57957066  0.79546574  0.77002459    -0.52400
O2227       O  0.73181840  0.81284268  0.72364364    -0.75600
O2228       O  0.64212429  0.84732688  0.78277163    -0.82300
O2229       O  0.67880042  0.69505860  0.74768609    -0.84100
O2230       O  0.66517537  0.86451284  0.83364217    -0.79700
O2231       O  0.65351717  0.74737128  0.73257632    -0.91400
O2232       O  0.82124656  0.80767267  0.72989190    -0.77300
O2233       O  0.74773397  0.81691325  0.79694737    -0.86800
O2234       O  0.75477935  0.75289096  0.76261643    -0.86500
O2235       O  0.64358869  0.79514600  0.83702542    -0.73300
O2236       O  0.65109625  0.73602536  0.80528402    -0.85400
Zr2237     Zr  0.77264384  0.73617580  0.87553805     2.26400
Zr2238     Zr  0.71681100  0.82270869  0.85792716     2.06300
Zr2239     Zr  0.73128480  0.70149844  0.79301284     2.10000
Zr2240     Zr  0.82634380  0.78120956  0.78414359     1.78800
O2241       O  0.67623750  0.65002179  0.80307486    -0.94200
O2242       O  0.87735165  0.83424018  0.78343865    -0.42000
O2243       O  0.80412185  0.72918615  0.81409251    -0.78600
O2244       O  0.79748619  0.78835263  0.84530489    -0.97300
O2245       O  0.69290860  0.77133575  0.88830037    -0.90600
O2246       O  0.70052397  0.70765801  0.85386602    -0.93500
C2247       C  0.78408148  0.81663255  0.71320275     1.00300
C2248       C  0.65610575  0.71484832  0.72900402     1.13200
C2249       C  0.64287949  0.86931950  0.80719992     1.04000
O2250       O  0.77021713  0.87497404  0.85215507    -0.95600
O2251       O  0.76591994  0.82941218  0.90488821    -0.91400
O2252       O  0.79397391  0.77736407  0.91888787    -0.84500
C2253       C  0.78986407  0.80982943  0.92309892     1.10600
O2254       O  0.53040293  0.74983950  0.85204362    -0.97600
Zr2255     Zr  0.62144710  0.74300473  0.86650069     1.88900
O2256       O  0.71548899  0.71252305  0.92786869    -0.74200
O2257       O  0.65040150  0.84550669  0.90649447    -0.53500
O2258       O  0.56608513  0.78060350  0.90883737    -0.98200
O2259       O  0.56948300  0.69019931  0.86771224    -0.55400
O2260       O  0.62617476  0.71756062  0.92131263    -0.74800
C2261       C  0.66312762  0.70892656  0.93830871     0.97600
O2262       O  0.86816541  0.72897185  0.88161070    -0.63600
O2263       O  0.79495735  0.67629179  0.74433910    -0.58400
O2264       O  0.80641566  0.67730983  0.86800373    -0.95100
O2265       O  0.78775721  0.66135255  0.81558946    -0.93500
O2266       O  0.88278892  0.74428632  0.74169928    -0.93800
O2267       O  0.91882744  0.77580014  0.79648171    -0.92600
C2268       C  0.80845348  0.65607873  0.84257663     1.16400
H2269       H  0.76515526  0.74845482  0.73803495     0.32400
H2270       H  0.82757078  0.79911438  0.85375435     0.43200
H2271       H  0.69324686  0.68574933  0.86447391     0.36800
H2272       H  0.61088320  0.80901474  0.84149927     0.33200
H2273       H  0.90361336  0.83392368  0.76101263     0.25000
H2274       H  0.66050801  0.86972443  0.90773757     0.31000
H2275       H  0.54489597  0.76532463  0.92626036     0.36900
H2276       H  0.90914532  0.75975269  0.72740609     0.31300
H2277       H  0.78080985  0.65303929  0.74205146     0.30200
H2278       H  0.69539585  0.63340213  0.78591510     0.31900
H2279       H  0.54955093  0.68812346  0.89195190     0.30900
H2280       H  0.92022364  0.75255523  0.80542326     0.34800
H2281       H  0.88694266  0.71833807  0.85960982     0.27600
H2282       H  0.56091834  0.80620315  0.79199727     0.31800
H2283       H  0.50359169  0.74446729  0.87339487     0.34700
H2284       H  0.78802942  0.68809760  0.72352043     0.27300
H2285       H  0.88359818  0.75220219  0.88062890     0.40100
H2286       H  0.78044931  0.87861600  0.82688748     0.30200
H2287       H  0.85046885  0.85203937  0.78072798     0.37800
H2288       H  0.59737526  0.67196402  0.86483634     0.29700
H2289       H  0.61486131  0.84566416  0.89839450     0.29700
H2290       H  0.56423593  0.77220482  0.77121951     0.30000
C2291       C  0.83209770  0.62090296  0.84324584     0.85500
C2292       C  0.87406169  0.61234174  0.80997356    -0.54800
C2293       C  0.88985651  0.57917060  0.80700293     0.08400
C2294       C  0.86339084  0.55763823  0.83818957     0.19300
C2295       C  0.78522593  0.59546588  0.84336305    -0.55500
C2296       C  0.80152309  0.56276608  0.84020642     0.08500
C2297       C  0.86010553  0.60980344  0.87298805    -0.55000
C2298       C  0.87652765  0.57632812  0.87047049     0.09100
H2299       H  0.88484786  0.62997159  0.78872857     0.13600
H2300       H  0.87621760  0.53063599  0.83576707    -0.00700
H2301       H  0.74279956  0.60282208  0.84358485     0.13900
H2302       H  0.86570627  0.62654191  0.89415902     0.13700
C2303       C  0.61966246  0.90449009  0.80613384     0.85500
C2304       C  0.66646530  0.92985285  0.80639399    -0.54800
C2305       C  0.65025018  0.96253625  0.80938834     0.08400
C2306       C  0.58857136  0.96775760  0.81059632     0.19300
C2307       C  0.57691360  0.91317622  0.83897705    -0.55500
C2308       C  0.56115317  0.94635896  0.84168086     0.08500
C2309       C  0.59265276  0.91542219  0.77594857    -0.55000
C2310       C  0.57643044  0.94890283  0.77808425     0.09100
H2311       H  0.70877113  0.92247697  0.80651240     0.13600
H2312       H  0.57576106  0.49478926  0.81280675    -0.00700
H2313       H  0.56565304  0.89563051  0.86025652     0.13900
H2314       H  0.58743925  0.89854306  0.75480165     0.13700
Zr2315     Zr  0.52206950  0.53960585  0.70938699     2.17500
O2316       O  0.59950680  0.55418585  0.73689419    -0.52400
O2317       O  0.96219409  0.56283509  0.76098821    -0.75600
O2318       O  0.55885757  0.59771052  0.69882923    -0.82300
O2319       O  0.52508020  0.94486911  0.73351211    -0.84100
O2320       O  0.53152919  0.61533837  0.98322583    -0.79700
O2321       O  0.55226199  0.49743513  0.74788749    -0.91400
O2322       O  0.87327747  0.55276317  0.75628539    -0.77300
O2323       O  0.94812509  0.56613033  0.68869326    -0.86800
O2324       O  0.94532699  0.50197312  0.72072493    -0.86500
O2325       O  0.55435298  0.54700630  0.98134311    -0.73300
O2326       O  0.55046676  0.98811825  0.67762250    -0.85400
Zr2327     Zr  0.92882500  0.98495926  0.93969409     2.26400
Zr2328     Zr  0.97855229  0.57245570  0.96111106     2.06300
Zr2329     Zr  0.97258033  0.95145372  0.68818666     2.10000
Zr2330     Zr  0.87214556  0.52813013  0.69965181     1.78800
O2331       O  0.53258618  0.90262308  0.67275661    -0.94200
O2332       O  0.81843990  0.58018488  0.70376295    -0.42000
O2333       O  0.89746298  0.97695416  0.66759826    -0.78600
O2334       O  0.90002847  0.53601700  0.97216110    -0.97300
O2335       O  0.00627009  0.52201763  0.92847509    -0.90600
O2336       O  0.00256973  0.95811883  0.96053779    -0.93500
C2337       C  0.91006888  0.56388068  0.77259323     1.00300
C2338       C  0.54953616  0.96493078  0.75153573     1.13200
C2339       C  0.55690546  0.61970617  0.67519255     1.04000
O2340       O  0.91858469  0.62160967  0.97381461    -0.95600
O2341       O  0.92915573  0.57980198  0.91442515    -0.91400
O2342       O  0.89953638  0.52758081  0.90096237    -0.84500
C2343       C  0.90371926  0.55999799  0.89673780     1.10600
O2344       O  0.66700529  0.50016788  0.96883390    -0.97600
Zr2345     Zr  0.57916397  0.99560696  0.94973928     1.88900
O2346       O  0.98886408  0.96218285  0.88794502    -0.74200
O2347       O  0.53844200  0.59894745  0.91221270    -0.53500
O2348       O  0.63201737  0.53691008  0.91158208    -0.98200
O2349       O  0.63407699  0.94391159  0.94482141    -0.55400
O2350       O  0.57769100  0.97254712  0.89250807    -0.74800
C2351       C  0.54089918  0.96158775  0.87612107     0.97600
O2352       O  0.85331519  0.97084490  0.91033253    -0.63600
O2353       O  0.91318339  0.92275873  0.73592587    -0.58400
O2354       O  0.88870470  0.92771560  0.95171216    -0.95100
O2355       O  0.91419789  0.91071076  0.00135133    -0.93500
O2356       O  0.81924126  0.98606956  0.73685938    -0.93800
O2357       O  0.78341072  0.52367043  0.68177054    -0.92600
C2358       C  0.88941358  0.90609227  0.97590622     1.16400
H2359       H  0.93534415  0.49701876  0.74511866     0.32400
H2360       H  0.86923769  0.54617814  0.96426940     0.43200
H2361       H  0.51119202  0.93638780  0.94923466     0.36800
H2362       H  0.58667481  0.56127332  0.97706182     0.33200
H2363       H  0.78911504  0.57766863  0.72453506     0.25000
H2364       H  0.52761420  0.62312237  0.91380529     0.31000
H2365       H  0.61412024  0.53776566  0.89111940     0.36900
H2366       H  0.83224821  0.48788769  0.75914174     0.31300
H2367       H  0.93147965  0.90080359  0.73793201     0.30200
H2368       H  0.51436957  0.88408710  0.68743256     0.31900
H2369       H  0.66510581  0.94766082  0.92526428     0.30900
H2370       H  0.78854344  0.50524660  0.99697479     0.34800
H2371       H  0.86554383  0.95080171  0.89552388     0.27600
H2372       H  0.58758112  0.57387432  0.75230818     0.31800
H2373       H  0.65936386  0.51456967  0.98999127     0.34700
H2374       H  0.91716559  0.93557562  0.75710564     0.27300
H2375       H  0.82271749  0.96269160  0.92842405     0.40100
H2376       H  0.92071245  0.62840826  0.99784531     0.30200
H2377       H  0.84300962  0.59798426  0.71029759     0.37800
H2378       H  0.61128112  0.92632041  0.93617534     0.29700
H2379       H  0.57566749  0.59874570  0.91804119     0.29700
H2380       H  0.62900586  0.56285670  0.71838120     0.30000
C2381       C  0.74910968  0.53573125  0.79972989    -0.10200
C2382       C  0.76409484  0.53630058  0.83238746     0.06000
C2383       C  0.74043977  0.51330454  0.85769448    -0.03900
C2384       C  0.70280225  0.98940431  0.84992191    -0.08400
C2385       C  0.68769939  0.98892288  0.81730028     0.05100
C2386       C  0.71142025  0.51186079  0.79200272    -0.03400
Br2387     Br  0.69557182  0.50941364  0.74633533    -0.03100
H2388       H  0.76674234  0.55386124  0.78034959     0.09000
H2389       H  0.68512790  0.97126609  0.86928948     0.07100
Br2390     Br  0.75586857  0.51573809  0.90348435    -0.03500
C2391       C  0.97139978  0.72955757  0.98256424    -0.10200
C2392       C  0.51480427  0.74008211  0.99889815     0.06000
C2393       C  0.51707252  0.77426317  0.67482543    -0.03900
C2394       C  0.97591453  0.79662972  0.00247423    -0.08400
C2395       C  0.93240507  0.78605172  0.98616940     0.05100
C2396       C  0.93003360  0.75152570  0.97706487    -0.03400
Br2397     Br  0.87292732  0.73095416  0.95739775    -0.03100
H2398       H  0.96934652  0.70371709  0.97340928     0.09000
H2399       H  0.97796084  0.82221725  0.67823323     0.07100
Br2400     Br  0.57433967  0.79461279  0.69452467    -0.03500
loop_ 
_geom_bond_atom_site_label_1 
_geom_bond_atom_site_label_2 
_geom_bond_distance 
_geom_bond_site_symmetry_2 
_ccdc_geom_bond_type 
C1            C2   1.526       .  S
C1            C7   1.527       .  S
C1          C405   1.540   1_554  S
C1          C139   1.507       .  S
C2            C3   1.363       .  D
C2         H1209   1.087   1_455  S
C3          C404   1.547       .  S
C3          C592   1.500   1_554  S
C4            C6   1.535       .  S
C4          C203   1.547       .  S
C4          C208   1.549       .  S
C4           H10   1.103       .  S
C5          C201   1.541       .  S
C5            C6   1.363       .  D
C5           H11   1.087       .  S
C6           C61   1.471       .  S
C7            C8   1.378       .  D
C7           H12   1.086       .  S
C8          C404   1.550       .  S
C8           C48   1.478       .  S
H9         C1202   1.087       .  S
C13          C19   1.529       .  S
C13          C17   1.528       .  S
C13         C214   1.539       .  S
C13         C158   1.511       .  S
C14         C413   1.539   1_554  S
C14          C15   1.362       .  D
C14          H21   1.087       .  S
C15         C416   1.534   1_554  S
C15          C47   1.468       .  S
C16          C20   1.547       .  S
C16          C18   1.546       .  S
C16         C215   1.534       .  S
C16          H22   1.103       .  S
C17          C18   1.363       .  D
C17          H23   1.087       .  S
C18         C195   1.500       .  S
C19          C20   1.380       .  D
C19          H24   1.086       .  S
C20          C53   1.480       .  S
Zr25         O26   2.436       .  S
Zr25         O27   2.449       .  S
Zr25         O28   2.463       .  S
Zr25         O31   2.459       .  S
Zr25         O33   2.389       .  S
Zr25         O34   2.388       .  S
Zr25         O35   2.404       .  S
Zr25         O36   2.405       .  S
O26          H82   0.990       .  S
O26          H90   0.990       .  S
O27          C47   1.288       .  A
O28          C49   1.289       .  A
O29         Zr39   2.410       .  S
O29          C48   1.281       .  A
O30         Zr38   2.405       .  S
O30          C49   1.282       .  A
O31          C48   1.290       .  A
O32         Zr40   2.413       .  S
O32          C47   1.280       .  A
O33         Zr38   2.382       .  S
O33         Zr40   2.377       .  S
O34         Zr39   2.380       .  S
O34         Zr40   2.372       .  S
O34          H69   0.966       .  S
O35         Zr38   2.379       .  S
O35         Zr55   2.385       .  S
O35          H72   0.965       .  S
O36         Zr39   2.379       .  S
O36         Zr55   2.392       .  S
Zr37         O62   2.437       .  S
Zr37         O56   2.457       .  S
Zr37         O64   2.467       .  S
Zr37         O52   2.467       .  S
Zr37         O43   2.406       .  S
Zr37         O44   2.409       .  S
Zr37         O45   2.385       .  S
Zr37         O46   2.391       .  S
Zr38         O57   2.435       .  S
Zr38         O50   2.435       .  S
Zr38         O51   2.406       .  S
Zr38         O44   2.386       .  S
Zr38         O45   2.381       .  S
Zr39         O41   2.436       .  S
Zr39         O63   2.440       .  S
Zr39         O65   2.403       .  S
Zr39         O43   2.378       .  S
Zr39         O46   2.380       .  S
Zr40         O66   2.436       .  S
Zr40         O67   2.438       .  S
Zr40         O42   2.437       .  S
Zr40         O43   2.390       .  S
Zr40         O44   2.389       .  S
O41          H78   0.990       .  S
O42          H73   0.991       .  S
O42          H87   0.990       .  S
O44          H70   0.965       .  S
O45         Zr55   2.376       .  S
O46         Zr55   2.378       .  S
O46          H71   0.966       .  S
C49         C103   1.508       .  S
O50          H86   0.990       .  S
O51          C53   1.280       .  A
O52          C53   1.292       .  A
O54         Zr55   2.442       .  S
O54          H83   0.990       .  S
Zr55         O58   2.437       .  S
Zr55         O59   2.442       .  S
Zr55         O60   2.412       .  S
O56          C61   1.290       .  A
O57          H74   0.990       .  S
O57          H89   0.990       .  S
O58          H75   0.989       .  S
O59          H79   0.991       .  S
O59          H88   0.990       .  S
O60          C61   1.280       .  A
O62          H81   0.990       .  S
O62          H85   0.990       .  S
O63          H77   0.990       .  S
O63          H84   0.990       .  S
O64          C68   1.290       .  A
O65          C68   1.282       .  A
O66          H76   0.990       .  S
O67          H80   0.990       .  S
C68          C91   1.511       .  S
C91          C92   1.543       .  S
C91          C97   1.536       .  S
C91          C95   1.529       .  S
C92          C93   1.366       .  D
C92          H99   1.087       .  S
C93          C94   1.540       .  S
C93         C137   1.474       .  S
C94          C98   1.548       .  S
C94          C96   1.531       .  S
C94         H100   1.111       .  S
C95          C96   1.350       .  D
C95         H101   1.088       .  S
C96         C182   1.461       .  S
C97          C98   1.381       .  D
C97         H102   1.086       .  S
C98         C143   1.490       .  S
C103        C104   1.529       .  S
C103        C109   1.535       .  S
C103        C107   1.541       .  S
C104        C105   1.351       .  D
C104        H111   1.088       .  S
C105        C106   1.530       .  S
C105        C185   1.460       .  S
C106        C110   1.549       .  S
C106        C108   1.541       .  S
C106        H712   1.111       .  S
C107        C108   1.365       .  D
C107        H113   1.087       .  S
C108        C151   1.475       .  S
C109        C110   1.380       .  D
C109        H114   1.086       .  S
C110        C138   1.489       .  S
H112        C706   1.111       .  S
Zr115       O116   2.437       .  S
Zr115       O118   2.475       .  S
Zr115       O121   2.477   1_545  S
Zr115      O1317   2.446   1_455  S
Zr115      O1323   2.388   1_455  S
Zr115      O1324   2.384   1_455  S
Zr115       O525   2.418   1_554  S
Zr115       O726   2.408   1_545  S
O116        H172   0.991       .  S
O116        H180   0.991       .  S
O117      Zr1315   2.446       .  S
O117        C137   1.284       .  A
O118        C139   1.287       .  A
O119      Zr1329   2.412   1_455  S
O119        C138   1.280       .  A
O120      Zr1328   2.393   1_455  S
O120        C339   1.279       .  A
O121        C738   1.293       .  A
O122       Zr130   2.426       .  S
O122        C137   1.282       .  A
O123       Zr130   2.378       .  S
O123      Zr1315   2.388       .  S
O123       Zr528   2.391   1_554  S
O124       Zr130   2.374       .  S
O124      Zr1315   2.384       .  S
O124       Zr729   2.386   1_545  S
O124        H159   0.966   1_545  S
O125       Zr315   2.417       .  S
O125      Zr1328   2.400   1_455  S
O125       Zr745   2.388   1_545  S
O125        H162   0.965       .  S
O126       Zr715   2.408       .  S
O126      Zr1329   2.382   1_455  S
O126       Zr545   2.395   1_554  S
Zr127       O152   2.433       .  S
Zr127       O146   2.444       .  S
Zr127       O154   2.479       .  S
Zr127       O742   2.483       .  S
Zr127       O136   2.392       .  S
Zr127       O333   2.411       .  S
Zr127       O734   2.409       .  S
Zr127       O735   2.381       .  S
Zr128       O140   2.437       .  S
Zr128      O1347   2.438       .  S
Zr128       O141   2.412       .  S
Zr128      O1320   2.393       .  S
Zr128       O134   2.387       .  S
Zr128       O135   2.388       .  S
Zr128       O323   2.391       .  S
Zr128      O1325   2.400       .  S
Zr129       O153   2.441       .  S
Zr129      O1331   2.435       .  S
Zr129      O1319   2.412       .  S
Zr129       O555   2.390       .  S
Zr129       O133   2.392       .  S
Zr129       O724   2.385       .  S
Zr129      O1326   2.382       .  S
Zr129       O536   2.389   1_554  S
Zr130       O157   2.433       .  S
Zr130       O132   2.437       .  S
Zr130       O756   2.435   1_545  S
Zr130       O733   2.389   1_545  S
Zr130       O534   2.390   1_554  S
O131      Zr1329   2.435   1_455  S
O131        H168   0.990       .  S
O132        H163   0.989       .  S
O132        H177   0.990       .  S
O133       Zr527   2.412   1_554  S
O133       Zr730   2.389       .  S
O134       Zr727   2.409   1_545  S
O134       Zr330   2.389       .  S
O134        H160   0.965       .  S
O135       Zr727   2.381   1_545  S
O135      Zr1945   2.375   1_545  S
O136       Zr329   2.389       .  S
O136      Zr1345   2.375       .  S
O136       H1361   0.966       .  S
C138        O721   1.293       .  A
C139        O520   1.279   1_554  A
O140        H176   0.990       .  S
O141        C143   1.281       .  A
O142       Zr727   2.483   1_545  S
O142        C143   1.294       .  A
O144       Zr745   2.435       .  S
O144        H173   0.990   1_565  S
Zr145       O149   2.441       .  S
Zr145       O744   2.435       .  S
Zr145       O748   2.433       .  S
Zr145       O150   2.427       .  S
Zr145       O725   2.388       .  S
Zr145       O326   2.395       .  S
Zr145      O1935   2.375       .  S
Zr145      O1336   2.375       .  S
O146       C1351   1.283       .  A
O147      Zr1328   2.438   1_455  S
O147        H164   0.990       .  S
O147        H179   0.990       .  S
O148       Zr745   2.433   1_545  S
O148        H165   0.990       .  S
O149        H169   0.990       .  S
O149        H178   0.990       .  S
O150        C151   1.282       .  A
C151       O1346   1.283   1_455  A
O152        H171   0.990       .  S
O152        H175   0.990       .  S
O153        H167   0.990       .  S
O153        H174   0.990       .  S
O154        C158   1.289       .  A
O155       Zr329   2.388       .  S
O155        C158   1.279       .  A
O156       Zr730   2.435       .  S
O156        H766   0.990       .  S
O157        H570   0.990   1_554  S
H161       O1336   0.966       .  S
H166        O756   0.990       .  S
H170        O357   0.990       .  S
C181        C182   1.402       .  A
C181        C186   1.394       .  A
C181        H188   1.081       .  S
C182        C183   1.397       .  A
C183        C784   1.394   1_545  A
C183       Br190   1.911       .  S
C184        C185   1.402       .  A
C184        C783   1.394       .  A
C184        H189   1.081       .  S
C185        C786   1.397       .  A
C186        C785   1.397   1_545  A
C186       Br187   1.911       .  S
C191        C196   1.393       .  A
C191       C1392   1.411       .  A
C191        H198   1.082       .  S
C192        C203   1.499       .  S
C192       C1391   1.411   1_455  A
C192        C393   1.409       .  A
C193        C592   1.409   1_554  A
C193       C1794   1.395   1_455  A
C193       Br200   1.908       .  S
C194        C195   1.412       .  A
C194       C1593   1.394       .  A
C194        H399   1.082       .  S
C195        C196   1.409       .  A
C196       Br197   1.908       .  S
H199        C594   1.082       .  S
C201        C202   1.526       .  S
C201        C207   1.527       .  S
C201        C339   1.508       .  S
C202        C203   1.362       .  D
C202       H1409   1.087   1_455  S
C204        C403   1.548       .  S
C204        C408   1.549       .  S
C204        C206   1.535       .  S
C204        H210   1.103       .  S
C205        C401   1.541       .  S
C205        C206   1.363       .  D
C205        H211   1.087       .  S
C206        C261   1.471       .  S
C207        C208   1.379       .  D
C207        H212   1.086       .  S
C208        C248   1.478       .  S
H209       C1402   1.087       .  S
C213        C414   1.540       .  S
C213        C219   1.530       .  S
C213        C217   1.528       .  S
C213        C358   1.512       .  S
C214        C215   1.362       .  D
C214        H221   1.087       .  S
C215        C247   1.468       .  S
C216        C415   1.533       .  S
C216        C220   1.547       .  S
C216        C218   1.547       .  S
C216        H222   1.103       .  S
C217        C218   1.363       .  D
C217        H223   1.087       .  S
C218        C395   1.500       .  S
C219        C220   1.380       .  D
C219        H224   1.086       .  S
C220        C253   1.480       .  S
Zr225       O226   2.436       .  S
Zr225       O227   2.450       .  S
Zr225       O228   2.465       .  S
Zr225       O231   2.458       .  S
Zr225       O233   2.388       .  S
Zr225       O234   2.388       .  S
Zr225       O235   2.405       .  S
Zr225       O236   2.405       .  S
O226        H282   0.990       .  S
O226        H290   0.990       .  S
O227        C247   1.288       .  A
O228        C249   1.290       .  A
O229       Zr239   2.409       .  S
O229        C248   1.281       .  A
O230       Zr238   2.403       .  S
O230        C249   1.282       .  A
O231        C248   1.290       .  A
O232       Zr240   2.413       .  S
O232        C247   1.280       .  A
O233       Zr238   2.383       .  S
O233       Zr240   2.377       .  S
O234       Zr239   2.380       .  S
O234       Zr240   2.372       .  S
O234        H269   0.966       .  S
O235       Zr238   2.380       .  S
O235       Zr255   2.386       .  S
O235        H272   0.965       .  S
O236       Zr239   2.379       .  S
O236       Zr255   2.392       .  S
Zr237       O262   2.437       .  S
Zr237       O256   2.455       .  S
Zr237       O264   2.467       .  S
Zr237       O252   2.468       .  S
Zr237       O243   2.404       .  S
Zr237       O244   2.410       .  S
Zr237       O245   2.386       .  S
Zr237       O246   2.390       .  S
Zr238       O257   2.436       .  S
Zr238       O250   2.435       .  S
Zr238       O251   2.404       .  S
Zr238       O244   2.387       .  S
Zr238       O245   2.381       .  S
Zr239       O241   2.437       .  S
Zr239       O263   2.440       .  S
Zr239       O265   2.402       .  S
Zr239       O243   2.377       .  S
Zr239       O246   2.379       .  S
Zr240       O266   2.435       .  S
Zr240       O267   2.437       .  S
Zr240       O242   2.437       .  S
Zr240       O243   2.389       .  S
Zr240       O244   2.389       .  S
O241        H278   0.990       .  S
O242        H273   0.991       .  S
O242        H287   0.990       .  S
O244        H270   0.965       .  S
O245       Zr255   2.376       .  S
O246       Zr255   2.377       .  S
O246        H271   0.966       .  S
C249        C303   1.508       .  S
O250        H286   0.990       .  S
O251        C253   1.280       .  A
O252        C253   1.292       .  A
O254       Zr255   2.441       .  S
O254        H283   0.990       .  S
Zr255       O258   2.436       .  S
Zr255       O259   2.442       .  S
Zr255       O260   2.414       .  S
O256        C261   1.289       .  A
O257        H274   0.990       .  S
O257        H289   0.990       .  S
O258        H275   0.989       .  S
O259        H279   0.990       .  S
O259        H288   0.989       .  S
O260        C261   1.280       .  A
O262        H281   0.990       .  S
O262        H285   0.990       .  S
O263        H277   0.990       .  S
O263        H284   0.990       .  S
O264        C268   1.290       .  A
O265        C268   1.282       .  A
O266        H276   0.990       .  S
O267        H280   0.990       .  S
C268        C291   1.511       .  S
C291        C292   1.542       .  S
C291        C297   1.537       .  S
C291        C295   1.529       .  S
C292        C293   1.365       .  D
C292        H299   1.087       .  S
C293        C294   1.540       .  S
C293        C337   1.474       .  S
C294        C298   1.547       .  S
C294        C296   1.531       .  S
C294        H300   1.111       .  S
C295        C296   1.351       .  D
C295        H301   1.088       .  S
C296        C382   1.460       .  S
C297        C298   1.381       .  D
C297        H302   1.086       .  S
C298        C343   1.489       .  S
C303        C304   1.529       .  S
C303        C309   1.535       .  S
C303        C307   1.542       .  S
C304        C305   1.351       .  D
C304        H311   1.088       .  S
C305        C306   1.531       .  S
C305        C385   1.460       .  S
C306        C310   1.549       .  S
C306        C308   1.541       .  S
C306        H912   1.111       .  S
C307        C308   1.365       .  D
C307        H313   1.087       .  S
C308        C351   1.475       .  S
C309        C310   1.379       .  D
C309        H314   1.086       .  S
C310        C338   1.488       .  S
H312        C906   1.111       .  S
Zr315       O316   2.435       .  S
Zr315      O1517   2.445   1_455  S
Zr315       O318   2.476       .  S
Zr315       O321   2.474   1_545  S
Zr315      O1523   2.388   1_455  S
Zr315      O1524   2.383   1_455  S
Zr315       O926   2.408   1_545  S
O316        H372   0.990       .  S
O316        H380   0.990       .  S
O317      Zr1515   2.445       .  S
O317        C337   1.284       .  A
O318        C339   1.288       .  A
O319      Zr1529   2.411   1_455  S
O319        C338   1.280       .  A
O320      Zr1528   2.393   1_455  S
O320        C539   1.279       .  A
O321        C938   1.292       .  A
O322       Zr330   2.425       .  S
O322        C337   1.282       .  A
O323      Zr1515   2.388       .  S
O323       Zr330   2.377       .  S
O324      Zr1515   2.383       .  S
O324       Zr929   2.386   1_545  S
O324       Zr330   2.374       .  S
O324        H359   0.966   1_545  S
O325       Zr515   2.416       .  S
O325      Zr1528   2.399   1_455  S
O325       Zr945   2.386   1_545  S
O325        H362   0.965       .  S
O326       Zr915   2.408       .  S
O326      Zr1529   2.381   1_455  S
Zr327       O352   2.435       .  S
Zr327       O346   2.446       .  S
Zr327       O354   2.480       .  S
Zr327       O942   2.483       .  S
Zr327       O533   2.412       .  S
Zr327       O934   2.410       .  S
Zr327       O935   2.381       .  S
Zr327       O336   2.392       .  S
Zr328      O1547   2.438       .  S
Zr328       O340   2.437       .  S
Zr328      O1520   2.393       .  S
Zr328       O341   2.410       .  S
Zr328       O523   2.391       .  S
Zr328      O1525   2.399       .  S
Zr328       O334   2.387       .  S
Zr328       O335   2.388       .  S
Zr329      O1531   2.437       .  S
Zr329       O353   2.441       .  S
Zr329      O1519   2.411       .  S
Zr329       O924   2.386       .  S
Zr329      O1526   2.381       .  S
Zr329       O333   2.391       .  S
Zr330       O956   2.434   1_545  S
Zr330       O357   2.433       .  S
Zr330       O332   2.438       .  S
Zr330       O933   2.389   1_545  S
O331      Zr1529   2.437   1_455  S
O331        H368   0.990       .  S
O332        H363   0.989       .  S
O332        H377   0.990       .  S
O333       Zr930   2.388       .  S
O334       Zr927   2.410   1_545  S
O334       Zr530   2.390       .  S
O334        H360   0.966       .  S
O335       Zr927   2.381   1_545  S
O335      Zr2145   2.376   1_545  S
O336       Zr529   2.388       .  S
O336      Zr1545   2.375       .  S
O336       H1561   0.966       .  S
C338        O921   1.292       .  A
O340        H376   0.990       .  S
O341        C343   1.280       .  A
O342       Zr927   2.483   1_545  S
O342        C343   1.294       .  A
O344       Zr945   2.435   1_545  S
O344        H373   0.990       .  S
Zr345       O944   2.435       .  S
Zr345       O948   2.432       .  S
Zr345       O349   2.441       .  S
Zr345       O350   2.425       .  S
Zr345       O925   2.387       .  S
Zr345       O526   2.394       .  S
Zr345      O2135   2.376       .  S
Zr345      O1536   2.375       .  S
O346       C1551   1.284       .  A
O347      Zr1528   2.438   1_455  S
O347        H364   0.990       .  S
O347        H379   0.990       .  S
O348       Zr945   2.432   1_545  S
O348        H365   0.990       .  S
O349        H369   0.990       .  S
O349        H378   0.990       .  S
O350        C351   1.282       .  A
C351       O1546   1.284   1_455  A
O352        H371   0.990       .  S
O352        H375   0.991       .  S
O353        H367   0.990       .  S
O353        H374   0.990       .  S
O354        C358   1.289       .  A
O355       Zr529   2.389       .  S
O355        C358   1.279       .  A
O356       Zr930   2.434       .  S
O356        H966   0.990       .  S
H361       O1536   0.966       .  S
H366        O956   0.990       .  S
H370        O557   0.990       .  S
C381        C382   1.402       .  A
C381        C386   1.393       .  A
C381        H388   1.081       .  S
C382        C383   1.397       .  A
C383        C984   1.394   1_545  A
C383       Br390   1.912       .  S
C384        C983   1.394       .  A
C384        C385   1.403       .  A
C384        H389   1.081       .  S
C385        C986   1.397       .  A
C386        C985   1.397   1_545  A
C386       Br387   1.910       .  S
C391       C1592   1.412       .  A
C391        C396   1.393       .  A
C391        H398   1.082       .  S
C392        C403   1.499       .  S
C392       C1591   1.412   1_455  A
C392        C593   1.409       .  A
C393       C1394   1.394   1_455  A
C393       Br400   1.908       .  S
C394       C1793   1.395       .  A
C394        C395   1.412       .  A
C394        H599   1.082       .  S
C395        C396   1.409       .  A
C396       Br397   1.909       .  S
C401        C402   1.525       .  S
C401        C407   1.527       .  S
C401        C539   1.507       .  S
C402        C403   1.362       .  D
C402       H1609   1.087   1_455  S
C404        C406   1.536   1_554  S
C404        H410   1.103       .  S
C405        C406   1.363       .  D
C405        H411   1.087       .  S
C406        C461   1.471       .  S
C407        C408   1.379       .  D
C407        H412   1.086       .  S
C408        C448   1.478       .  S
H409       C1602   1.087       .  S
C413        C419   1.530       .  S
C413        C417   1.528       .  S
C413        C558   1.512       .  S
C414        C415   1.363       .  D
C414        H421   1.087       .  S
C415        C447   1.467       .  S
C416        C420   1.548       .  S
C416        C418   1.547       .  S
C416        H422   1.103       .  S
C417        C418   1.362       .  D
C417        H423   1.087       .  S
C418        C595   1.500       .  S
C419        C420   1.380       .  D
C419        H424   1.086       .  S
C420        C453   1.481       .  S
Zr425       O426   2.437       .  S
Zr425       O427   2.451       .  S
Zr425       O428   2.465       .  S
Zr425       O431   2.460       .  S
Zr425       O433   2.389       .  S
Zr425       O434   2.389       .  S
Zr425       O435   2.405       .  S
Zr425       O436   2.405       .  S
O426        H482   0.990       .  S
O426        H490   0.990       .  S
O427        C447   1.288       .  A
O428        C449   1.290       .  A
O429       Zr439   2.407       .  S
O429        C448   1.280       .  A
O430       Zr438   2.405       .  S
O430        C449   1.282       .  A
O431        C448   1.291       .  A
O432       Zr440   2.412       .  S
O432        C447   1.280       .  A
O433       Zr438   2.383       .  S
O433       Zr440   2.377       .  S
O434       Zr439   2.381       .  S
O434       Zr440   2.372       .  S
O434        H469   0.966       .  S
O435       Zr438   2.380       .  S
O435       Zr455   2.385       .  S
O435        H472   0.965       .  S
O436       Zr439   2.380       .  S
O436       Zr455   2.392       .  S
Zr437       O462   2.437       .  S
Zr437       O456   2.456       .  S
Zr437       O464   2.468       .  S
Zr437       O452   2.469       .  S
Zr437       O443   2.406       .  S
Zr437       O444   2.410       .  S
Zr437       O445   2.386       .  S
Zr437       O446   2.390       .  S
Zr438       O457   2.435       .  S
Zr438       O450   2.435       .  S
Zr438       O451   2.407       .  S
Zr438       O444   2.386       .  S
Zr438       O445   2.381       .  S
Zr439       O441   2.436       .  S
Zr439       O463   2.440       .  S
Zr439       O465   2.403       .  S
Zr439       O443   2.378       .  S
Zr439       O446   2.379       .  S
Zr440       O466   2.435       .  S
Zr440       O467   2.437       .  S
Zr440       O442   2.437       .  S
Zr440       O443   2.390       .  S
Zr440       O444   2.389       .  S
O441        H478   0.990       .  S
O442        H473   0.991       .  S
O442        H487   0.990       .  S
O444        H470   0.965       .  S
O445       Zr455   2.376       .  S
O446       Zr455   2.378       .  S
O446        H471   0.966       .  S
C449        C503   1.509       .  S
O450        H486   0.990       .  S
O451        C453   1.280       .  A
O452        C453   1.292       .  A
O454       Zr455   2.441       .  S
O454        H483   0.990       .  S
Zr455       O458   2.437       .  S
Zr455       O459   2.441       .  S
Zr455       O460   2.412       .  S
O456        C461   1.289       .  A
O457        H474   0.990       .  S
O457        H489   0.990       .  S
O458        H475   0.989       .  S
O459        H479   0.990       .  S
O459        H488   0.990       .  S
O460        C461   1.280       .  A
O462        H481   0.990       .  S
O462        H485   0.990       .  S
O463        H477   0.990       .  S
O463        H484   0.990       .  S
O464        C468   1.291       .  A
O465        C468   1.282       .  A
O466        H476   0.990       .  S
O467        H480   0.990       .  S
C468        C491   1.512       .  S
C491        C492   1.542       .  S
C491        C497   1.537       .  S
C491        C495   1.530       .  S
C492        C493   1.366       .  D
C492        H499   1.087       .  S
C493        C494   1.540       .  S
C493        C537   1.473       .  S
C494        C498   1.547       .  S
C494        C496   1.531       .  S
C494        H500   1.111       .  S
C495        C496   1.351       .  D
C495        H501   1.088       .  S
C496        C582   1.461       .  S
C497        C498   1.381       .  D
C497        H502   1.086       .  S
C498        C543   1.490       .  S
C503        C504   1.529       .  S
C503        C509   1.535       .  S
C503        C507   1.541       .  S
C504        C505   1.350       .  D
C504        H511   1.088       .  S
C505        C506   1.531       .  S
C505        C585   1.460       .  S
C506        C510   1.549       .  S
C506        C508   1.540       .  S
C506       H1112   1.111       .  S
C507        C508   1.366       .  D
C507        H513   1.087       .  S
C508        C551   1.473       .  S
C509        C510   1.380       .  D
C509        H514   1.086       .  S
C510        C538   1.489       .  S
H512       C1106   1.111       .  S
Zr515       O516   2.435       .  S
Zr515      O1717   2.444   1_455  S
Zr515       O518   2.475       .  S
Zr515       O521   2.474   1_545  S
Zr515      O1723   2.388   1_455  S
Zr515      O1724   2.383   1_455  S
Zr515      O1126   2.408   1_545  S
O516        H572   0.990       .  S
O516        H580   0.991       .  S
O517      Zr1715   2.445       .  S
O517        C537   1.283       .  A
O518        C539   1.288       .  A
O519      Zr1729   2.413   1_455  S
O519        C538   1.281       .  A
O520      Zr1728   2.392   1_455  S
O521       C1138   1.292       .  A
O522       Zr530   2.424       .  S
O522        C537   1.282       .  A
O523      Zr1715   2.388       .  S
O523       Zr530   2.377       .  S
O524      Zr1715   2.383       .  S
O524      Zr1129   2.386   1_545  S
O524       Zr530   2.373       .  S
O524        H559   0.966   1_545  S
O525      Zr1728   2.400   1_455  S
O525      Zr1145   2.387   1_545  S
O525        H562   0.965       .  S
O526      Zr1115   2.408       .  S
O526      Zr1729   2.380   1_455  S
Zr527       O552   2.434       .  S
Zr527       O546   2.443       .  S
Zr527       O554   2.479       .  S
Zr527      O1142   2.483       .  S
Zr527      O1134   2.409       .  S
Zr527      O1135   2.381       .  S
Zr527       O536   2.393       .  S
Zr528      O1747   2.438       .  S
Zr528       O540   2.436       .  S
Zr528      O1720   2.392       .  S
Zr528       O541   2.411       .  S
Zr528      O1725   2.399       .  S
Zr528       O534   2.387       .  S
Zr528       O535   2.387       .  S
Zr529      O1731   2.437       .  S
Zr529       O553   2.440       .  S
Zr529      O1719   2.413       .  S
Zr529      O1124   2.386       .  S
Zr529      O1726   2.380       .  S
Zr529       O533   2.393       .  S
Zr530      O1156   2.434   1_545  S
Zr530       O557   2.433       .  S
Zr530       O532   2.438       .  S
Zr530      O1133   2.390   1_545  S
O531      Zr1729   2.437   1_455  S
O531        H568   0.990       .  S
O532        H563   0.989       .  S
O532        H577   0.990       .  S
O533      Zr1130   2.390       .  S
O534      Zr1127   2.409   1_545  S
O534        H560   0.965       .  S
O535      Zr1127   2.381   1_545  S
O535      Zr2345   2.375   1_545  S
O536      Zr1745   2.376       .  S
O536       H1761   0.966       .  S
C538       O1121   1.292       .  A
O540        H576   0.990       .  S
O541        C543   1.280       .  A
O542      Zr1127   2.483   1_545  S
O542        C543   1.294       .  A
O544      Zr1145   2.435   1_545  S
O544        H573   0.990       .  S
Zr545      O1144   2.435       .  S
Zr545      O1148   2.434       .  S
Zr545       O549   2.441       .  S
Zr545       O550   2.424       .  S
Zr545      O1125   2.387       .  S
Zr545      O2335   2.375       .  S
Zr545      O1736   2.376       .  S
O546       C1751   1.283       .  A
O547      Zr1728   2.438   1_455  S
O547        H564   0.990       .  S
O547        H579   0.990       .  S
O548      Zr1145   2.434   1_545  S
O548        H565   0.990       .  S
O549        H569   0.990       .  S
O549        H578   0.990       .  S
O550        C551   1.282       .  A
C551       O1746   1.283   1_455  A
O552        H571   0.990       .  S
O552        H575   0.990       .  S
O553        H567   0.990       .  S
O553        H574   0.990       .  S
O554        C558   1.289       .  A
O555        C558   1.280   1_554  A
O556      Zr1130   2.434       .  S
O556       H1166   0.990       .  S
H561       O1736   0.966       .  S
H566       O1156   0.990       .  S
C581        C582   1.402       .  A
C581        C586   1.394       .  A
C581        H588   1.081       .  S
C582        C583   1.398       .  A
C583       C1184   1.394   1_545  A
C583       Br590   1.911       .  S
C584       C1183   1.394       .  A
C584        C585   1.402       .  A
C584        H589   1.081       .  S
C585       C1186   1.396       .  A
C586       C1185   1.396   1_545  A
C586       Br587   1.911       .  S
C591       C1792   1.411       .  A
C591        C596   1.393       .  A
C591        H598   1.082       .  S
C592       C1791   1.411   1_455  A
C593       C1594   1.395   1_455  A
C593       Br600   1.909       .  S
C594       C1393   1.395       .  A
C594        C595   1.412   1_554  A
C595        C596   1.409       .  A
C596       Br597   1.908       .  S
C601        C602   1.525       .  S
C601        C607   1.527       .  S
C601       C1005   1.540   1_554  S
C601        C739   1.507       .  S
C602        C603   1.362       .  D
C602       H1809   1.087   1_455  S
C603       C1004   1.547       .  S
C603       C1192   1.499   1_554  S
C604        C803   1.547       .  S
C604        C808   1.549       .  S
C604        C606   1.535       .  S
C604        H610   1.103       .  S
C605        C801   1.541       .  S
C605        C606   1.363       .  D
C605        H611   1.087       .  S
C606        C661   1.471       .  S
C607        C608   1.378       .  D
C607        H612   1.086       .  S
C608       C1004   1.550       .  S
C608        C648   1.478       .  S
H609       C1802   1.087       .  S
C613        C814   1.540       .  S
C613        C619   1.529       .  S
C613        C617   1.528       .  S
C613        C758   1.510       .  S
C614       C1013   1.539   1_554  S
C614        C615   1.363       .  D
C614        H621   1.087       .  S
C615       C1016   1.534   1_554  S
C615        C647   1.468       .  S
C616        C815   1.534       .  S
C616        C620   1.548       .  S
C616        C618   1.547       .  S
C616        H622   1.103       .  S
C617        C618   1.362       .  D
C617        H623   1.087       .  S
C618        C795   1.500       .  S
C619        C620   1.380       .  D
C619        H624   1.086       .  S
C620        C653   1.480       .  S
Zr625       O626   2.436       .  S
Zr625       O627   2.449       .  S
Zr625       O628   2.463       .  S
Zr625       O631   2.458       .  S
Zr625       O633   2.388       .  S
Zr625       O634   2.388       .  S
Zr625       O635   2.404       .  S
Zr625       O636   2.405       .  S
O626        H682   0.990       .  S
O626        H690   0.990       .  S
O627        C647   1.288       .  A
O628        C649   1.289       .  A
O629       Zr639   2.410       .  S
O629        C648   1.281       .  A
O630       Zr638   2.405       .  S
O630        C649   1.282       .  A
O631        C648   1.290       .  A
O632       Zr640   2.413       .  S
O632        C647   1.280       .  A
O633       Zr638   2.382       .  S
O633       Zr640   2.376       .  S
O634       Zr639   2.380       .  S
O634       Zr640   2.372       .  S
O634        H669   0.966       .  S
O635       Zr638   2.379       .  S
O635       Zr655   2.385       .  S
O635        H672   0.965       .  S
O636       Zr639   2.379       .  S
O636       Zr655   2.392       .  S
Zr637       O662   2.437       .  S
Zr637       O656   2.457       .  S
Zr637       O664   2.467       .  S
Zr637       O652   2.468       .  S
Zr637       O643   2.405       .  S
Zr637       O644   2.409       .  S
Zr637       O645   2.385       .  S
Zr637       O646   2.390       .  S
Zr638       O657   2.435       .  S
Zr638       O650   2.435       .  S
Zr638       O651   2.406       .  S
Zr638       O644   2.387       .  S
Zr638       O645   2.381       .  S
Zr639       O641   2.436       .  S
Zr639       O663   2.440       .  S
Zr639       O665   2.403       .  S
Zr639       O643   2.378       .  S
Zr639       O646   2.380       .  S
Zr640       O666   2.436       .  S
Zr640       O667   2.438       .  S
Zr640       O642   2.437       .  S
Zr640       O643   2.390       .  S
Zr640       O644   2.389       .  S
O641        H678   0.990       .  S
O642        H673   0.991       .  S
O642        H687   0.990       .  S
O644        H670   0.965       .  S
O645       Zr655   2.376       .  S
O646       Zr655   2.377       .  S
O646        H671   0.966       .  S
C649        C703   1.508       .  S
O650        H686   0.990       .  S
O651        C653   1.280       .  A
O652        C653   1.292       .  A
O654       Zr655   2.442       .  S
O654        H683   0.990       .  S
Zr655       O658   2.437       .  S
Zr655       O659   2.442       .  S
Zr655       O660   2.412       .  S
O656        C661   1.289       .  A
O657        H674   0.990       .  S
O657        H689   0.990       .  S
O658        H675   0.989       .  S
O659        H679   0.991       .  S
O659        H688   0.990       .  S
O660        C661   1.280       .  A
O662        H681   0.990       .  S
O662        H685   0.990       .  S
O663        H677   0.990       .  S
O663        H684   0.990       .  S
O664        C668   1.290       .  A
O665        C668   1.282       .  A
O666        H676   0.990       .  S
O667        H680   0.990       .  S
C668        C691   1.511       .  S
C691        C692   1.542       .  S
C691        C697   1.537       .  S
C691        C695   1.529       .  S
C692        C693   1.365       .  D
C692        H699   1.087       .  S
C693        C694   1.540       .  S
C693        C737   1.474       .  S
C694        C698   1.548       .  S
C694        C696   1.531       .  S
C694        H700   1.111       .  S
C695        C696   1.350       .  D
C695        H701   1.088       .  S
C696        C782   1.461       .  S
C697        C698   1.381       .  D
C697        H702   1.086       .  S
C698        C743   1.490       .  S
C703        C704   1.529       .  S
C703        C709   1.535       .  S
C703        C707   1.542       .  S
C704        C705   1.351       .  D
C704        H711   1.088       .  S
C705        C706   1.530       .  S
C705        C785   1.461       .  S
C706        C710   1.549       .  S
C706        C708   1.541       .  S
C707        C708   1.365       .  D
C707        H713   1.087       .  S
C708        C751   1.475       .  S
C709        C710   1.380       .  D
C709        H714   1.086       .  S
C710        C738   1.489       .  S
Zr715       O716   2.437       .  S
Zr715      O1917   2.446   1_455  S
Zr715       O718   2.475       .  S
Zr715       O721   2.476       .  S
Zr715      O1923   2.388   1_455  S
Zr715      O1924   2.384   1_455  S
Zr715      O1125   2.418   1_554  S
O716        H772   0.991       .  S
O716        H780   0.991       .  S
O717      Zr1915   2.446       .  S
O717        C737   1.284       .  A
O718        C739   1.287       .  A
O719      Zr1929   2.411   1_455  S
O719        C738   1.280       .  A
O720      Zr1928   2.393   1_455  S
O720        C939   1.279       .  A
O722       Zr730   2.425       .  S
O722        C737   1.282       .  A
O723      Zr1915   2.388       .  S
O723      Zr1128   2.391   1_554  S
O723       Zr730   2.378       .  S
O724      Zr1915   2.384       .  S
O724       Zr730   2.374       .  S
O724        H759   0.966       .  S
O725       Zr915   2.417       .  S
O725      Zr1928   2.400   1_455  S
O725        H762   0.965       .  S
O726      Zr1929   2.382   1_455  S
O726      Zr1145   2.395   1_554  S
Zr727       O752   2.433       .  S
Zr727       O746   2.444       .  S
Zr727       O754   2.478       .  S
Zr727       O933   2.411       .  S
Zr727       O736   2.392       .  S
Zr728      O1947   2.438       .  S
Zr728       O740   2.437       .  S
Zr728      O1920   2.393       .  S
Zr728       O741   2.412       .  S
Zr728       O923   2.391       .  S
Zr728      O1925   2.400       .  S
Zr728       O734   2.387       .  S
Zr728       O735   2.388       .  S
Zr729      O1931   2.435       .  S
Zr729       O753   2.441       .  S
Zr729      O1919   2.412       .  S
Zr729      O1155   2.390       .  S
Zr729      O1926   2.382       .  S
Zr729       O733   2.392       .  S
Zr729      O1136   2.389   1_554  S
Zr730       O757   2.434       .  S
Zr730       O732   2.437       .  S
Zr730      O1134   2.390   1_554  S
O731      Zr1929   2.435   1_455  S
O731        H768   0.990       .  S
O732        H763   0.989       .  S
O732        H777   0.990       .  S
O733      Zr1127   2.412   1_554  S
O734       Zr930   2.389       .  S
O734        H760   0.965       .  S
O735      Zr1345   2.375       .  S
O736       Zr929   2.389       .  S
O736      Zr1945   2.375       .  S
O736       H1961   0.966       .  S
C739       O1120   1.279   1_554  A
O740        H776   0.990       .  S
O741        C743   1.281       .  A
O742        C743   1.294       .  A
O744        H773   0.990       .  S
Zr745       O749   2.441       .  S
Zr745       O750   2.427       .  S
Zr745       O926   2.395       .  S
Zr745      O1335   2.375   1_565  S
Zr745      O1936   2.375       .  S
O746       C1951   1.283       .  A
O747      Zr1928   2.438   1_455  S
O747        H764   0.990       .  S
O747        H779   0.990       .  S
O748        H765   0.990       .  S
O749        H769   0.990       .  S
O749        H778   0.990       .  S
O750        C751   1.282       .  A
C751       O1946   1.283   1_455  A
O752        H771   0.990       .  S
O752        H775   0.990       .  S
O753        H767   0.990       .  S
O753        H774   0.990       .  S
O754        C758   1.288       .  A
O755       Zr929   2.388       .  S
O755        C758   1.279       .  A
O757       H1170   0.990   1_554  S
H761       O1936   0.966       .  S
H770        O957   0.990       .  S
C781        C782   1.402       .  A
C781        C786   1.394       .  A
C781        H788   1.081       .  S
C782        C783   1.397       .  A
C783       Br790   1.911       .  S
C784        C785   1.402       .  A
C784        H789   1.081       .  S
C786       Br787   1.910       .  S
C791       C1992   1.411       .  A
C791        C796   1.393       .  A
C791        H798   1.082       .  S
C792        C803   1.499       .  S
C792       C1991   1.412   1_455  A
C792        C993   1.409       .  A
C793       C1192   1.409   1_554  A
C793       C2394   1.395   1_455  A
C793       Br800   1.908       .  S
C794       C2193   1.394       .  A
C794        C795   1.412       .  A
C794        H999   1.082       .  S
C795        C796   1.409       .  A
C796       Br797   1.908       .  S
H799       C1194   1.082       .  S
C801        C802   1.526       .  S
C801        C807   1.527       .  S
C801        C939   1.508       .  S
C802        C803   1.362       .  D
C802       H2009   1.086   1_455  S
C804       C1003   1.548       .  S
C804       C1008   1.549       .  S
C804        C806   1.535       .  S
C804        H810   1.102       .  S
C805       C1001   1.541       .  S
C805        C806   1.363       .  D
C805        H811   1.087       .  S
C806        C861   1.471       .  S
C807        C808   1.379       .  D
C807        H812   1.086       .  S
C808        C848   1.478       .  S
H809       C2002   1.087       .  S
C813       C1014   1.540       .  S
C813        C819   1.529       .  S
C813        C817   1.528       .  S
C813        C958   1.512       .  S
C814        C815   1.362       .  D
C814        H821   1.087       .  S
C815        C847   1.468       .  S
C816       C1015   1.533       .  S
C816        C820   1.547       .  S
C816        C818   1.547       .  S
C816        H822   1.103       .  S
C817        C818   1.363       .  D
C817        H823   1.087       .  S
C818        C995   1.500       .  S
C819        C820   1.380       .  D
C819        H824   1.086       .  S
C820        C853   1.479       .  S
Zr825       O826   2.436       .  S
Zr825       O827   2.450       .  S
Zr825       O828   2.465       .  S
Zr825       O831   2.459       .  S
Zr825       O833   2.388       .  S
Zr825       O834   2.388       .  S
Zr825       O835   2.405       .  S
Zr825       O836   2.405       .  S
O826        H882   0.990       .  S
O826        H890   0.990       .  S
O827        C847   1.288       .  A
O828        C849   1.290       .  A
O829       Zr839   2.408       .  S
O829        C848   1.281       .  A
O830       Zr838   2.404       .  S
O830        C849   1.282       .  A
O831        C848   1.290       .  A
O832       Zr840   2.414       .  S
O832        C847   1.280       .  A
O833       Zr838   2.383       .  S
O833       Zr840   2.377       .  S
O834       Zr839   2.380       .  S
O834       Zr840   2.371       .  S
O834        H869   0.966       .  S
O835       Zr838   2.380       .  S
O835       Zr855   2.386       .  S
O835        H872   0.965       .  S
O836       Zr839   2.379       .  S
O836       Zr855   2.392       .  S
Zr837       O862   2.437       .  S
Zr837       O856   2.455       .  S
Zr837       O864   2.468       .  S
Zr837       O852   2.468       .  S
Zr837       O843   2.404       .  S
Zr837       O844   2.410       .  S
Zr837       O845   2.386       .  S
Zr837       O846   2.390       .  S
Zr838       O857   2.436       .  S
Zr838       O850   2.435       .  S
Zr838       O851   2.405       .  S
Zr838       O844   2.387       .  S
Zr838       O845   2.381       .  S
Zr839       O841   2.437       .  S
Zr839       O863   2.440       .  S
Zr839       O865   2.402       .  S
Zr839       O843   2.377       .  S
Zr839       O846   2.379       .  S
Zr840       O866   2.435       .  S
Zr840       O867   2.437       .  S
Zr840       O842   2.437       .  S
Zr840       O843   2.390       .  S
Zr840       O844   2.389       .  S
O841        H878   0.990       .  S
O842        H873   0.991       .  S
O842        H887   0.990       .  S
O844        H870   0.965       .  S
O845       Zr855   2.376       .  S
O846       Zr855   2.377       .  S
O846        H871   0.966       .  S
C849        C903   1.508       .  S
O850        H886   0.990       .  S
O851        C853   1.280       .  A
O852        C853   1.292       .  A
O854       Zr855   2.441       .  S
O854        H883   0.990       .  S
Zr855       O858   2.436       .  S
Zr855       O859   2.442       .  S
Zr855       O860   2.414       .  S
O856        C861   1.289       .  A
O857        H874   0.990       .  S
O857        H889   0.990       .  S
O858        H875   0.989       .  S
O859        H879   0.990       .  S
O859        H888   0.989       .  S
O860        C861   1.280       .  A
O862        H881   0.990       .  S
O862        H885   0.990       .  S
O863        H877   0.990       .  S
O863        H884   0.990       .  S
O864        C868   1.290       .  A
O865        C868   1.282       .  A
O866        H876   0.990       .  S
O867        H880   0.990       .  S
C868        C891   1.511       .  S
C891        C892   1.542       .  S
C891        C897   1.537       .  S
C891        C895   1.529       .  S
C892        C893   1.365       .  D
C892        H899   1.087       .  S
C893        C894   1.540       .  S
C893        C937   1.474       .  S
C894        C898   1.547       .  S
C894        C896   1.531       .  S
C894        H900   1.111       .  S
C895        C896   1.351       .  D
C895        H901   1.088       .  S
C896        C982   1.460       .  S
C897        C898   1.381       .  D
C897        H902   1.086       .  S
C898        C943   1.489       .  S
C903        C904   1.529       .  S
C903        C909   1.535       .  S
C903        C907   1.542       .  S
C904        C905   1.351       .  D
C904        H911   1.088       .  S
C905        C906   1.531       .  S
C905        C985   1.460       .  S
C906        C910   1.549       .  S
C906        C908   1.541       .  S
C907        C908   1.365       .  D
C907        H913   1.087       .  S
C908        C951   1.475       .  S
C909        C910   1.379       .  D
C909        H914   1.086       .  S
C910        C938   1.487       .  S
Zr915       O916   2.435       .  S
Zr915      O2117   2.445   1_455  S
Zr915       O918   2.477       .  S
Zr915       O921   2.474       .  S
Zr915      O2123   2.388   1_455  S
Zr915      O2124   2.383   1_455  S
O916        H972   0.990       .  S
O916        H980   0.990       .  S
O917      Zr2115   2.446       .  S
O917        C937   1.284       .  A
O918        C939   1.288       .  A
O919      Zr2129   2.411   1_455  S
O919        C938   1.280       .  A
O920      Zr2128   2.394   1_455  S
O920       C1139   1.279       .  A
O922       Zr930   2.425       .  S
O922        C937   1.282       .  A
O923      Zr2115   2.388       .  S
O923       Zr930   2.377       .  S
O924      Zr2115   2.383       .  S
O924       Zr930   2.374       .  S
O924        H959   0.966       .  S
O925      Zr1115   2.416       .  S
O925      Zr2128   2.399   1_455  S
O925        H962   0.965       .  S
O926      Zr2129   2.381   1_455  S
Zr927       O952   2.435       .  S
Zr927       O946   2.446       .  S
Zr927       O954   2.480       .  S
Zr927      O1133   2.412       .  S
Zr927       O936   2.392       .  S
Zr928      O2147   2.438       .  S
Zr928       O940   2.437       .  S
Zr928      O2120   2.393       .  S
Zr928       O941   2.411       .  S
Zr928      O1123   2.391       .  S
Zr928      O2125   2.399       .  S
Zr928       O934   2.387       .  S
Zr928       O935   2.388       .  S
Zr929      O2131   2.437       .  S
Zr929       O953   2.441       .  S
Zr929      O2119   2.411       .  S
Zr929      O2126   2.381       .  S
Zr929       O933   2.392       .  S
Zr930       O957   2.433       .  S
Zr930       O932   2.438       .  S
O931      Zr2129   2.437   1_455  S
O931        H968   0.990       .  S
O932        H963   0.989       .  S
O932        H977   0.990       .  S
O934      Zr1130   2.390       .  S
O934        H960   0.966       .  S
O935      Zr1545   2.376       .  S
O936      Zr1129   2.388       .  S
O936      Zr2145   2.375       .  S
O936       H2161   0.966       .  S
O940        H976   0.990       .  S
O941        C943   1.280       .  A
O942        C943   1.294       .  A
O944        H973   0.990       .  S
Zr945       O949   2.441       .  S
Zr945       O950   2.425       .  S
Zr945      O1126   2.394       .  S
Zr945      O1535   2.375   1_565  S
Zr945      O2136   2.375       .  S
O946       C2151   1.284       .  A
O947      Zr2128   2.438   1_455  S
O947        H964   0.990       .  S
O947        H979   0.990       .  S
O948        H965   0.990       .  S
O949        H969   0.990       .  S
O949        H978   0.990       .  S
O950        C951   1.282       .  A
C951       O2146   1.284   1_455  A
O952        H971   0.990       .  S
O952        H975   0.991       .  S
O953        H967   0.990       .  S
O953        H974   0.990       .  S
O954        C958   1.289       .  A
O955      Zr1129   2.389       .  S
O955        C958   1.279       .  A
H961       O2136   0.966       .  S
H970       O1157   0.990       .  S
C981        C982   1.402       .  A
C981        C986   1.393       .  A
C981        H988   1.081       .  S
C982        C983   1.397       .  A
C983       Br990   1.912       .  S
C984        C985   1.403       .  A
C984        H989   1.081       .  S
C986       Br987   1.910       .  S
C991       C2192   1.412       .  A
C991        C996   1.393       .  A
C991        H998   1.082       .  S
C992       C1003   1.499       .  S
C992       C2191   1.412   1_455  A
C992       C1193   1.409       .  A
C993       C1994   1.394   1_455  A
C993      Br1000   1.908       .  S
C994       C2393   1.395       .  A
C994        C995   1.412       .  A
C994       H1199   1.082       .  S
C995        C996   1.409       .  A
C996       Br997   1.909       .  S
C1001      C1002   1.525       .  S
C1001      C1007   1.527       .  S
C1001      C1139   1.507       .  S
C1002      C1003   1.362       .  D
C1002      H2209   1.087   1_455  S
C1004      C1006   1.536   1_554  S
C1004      H1010   1.103       .  S
C1005      C1006   1.363       .  D
C1005      H1011   1.087       .  S
C1006      C1061   1.471       .  S
C1007      C1008   1.379       .  D
C1007      H1012   1.086       .  S
C1008      C1048   1.478       .  S
H1009      C2202   1.087       .  S
C1013      C1019   1.530       .  S
C1013      C1017   1.528       .  S
C1013      C1158   1.512       .  S
C1014      C1015   1.363       .  D
C1014      H1021   1.087       .  S
C1015      C1047   1.467       .  S
C1016      C1020   1.548       .  S
C1016      C1018   1.547       .  S
C1016      H1022   1.103       .  S
C1017      C1018   1.363       .  D
C1017      H1023   1.087       .  S
C1018      C1195   1.500       .  S
C1019      C1020   1.380       .  D
C1019      H1024   1.086       .  S
C1020      C1053   1.481       .  S
Zr1025     O1026   2.437       .  S
Zr1025     O1027   2.451       .  S
Zr1025     O1028   2.465       .  S
Zr1025     O1031   2.460       .  S
Zr1025     O1033   2.389       .  S
Zr1025     O1034   2.389       .  S
Zr1025     O1035   2.405       .  S
Zr1025     O1036   2.405       .  S
O1026      H1082   0.990       .  S
O1026      H1090   0.990       .  S
O1027      C1047   1.288       .  A
O1028      C1049   1.290       .  A
O1029     Zr1039   2.407       .  S
O1029      C1048   1.280       .  A
O1030     Zr1038   2.405       .  S
O1030      C1049   1.282       .  A
O1031      C1048   1.291       .  A
O1032     Zr1040   2.412       .  S
O1032      C1047   1.280       .  A
O1033     Zr1038   2.383       .  S
O1033     Zr1040   2.377       .  S
O1034     Zr1039   2.381       .  S
O1034     Zr1040   2.372       .  S
O1034      H1069   0.966       .  S
O1035     Zr1038   2.380       .  S
O1035     Zr1055   2.385       .  S
O1035      H1072   0.965       .  S
O1036     Zr1039   2.380       .  S
O1036     Zr1055   2.392       .  S
Zr1037     O1062   2.437       .  S
Zr1037     O1056   2.456       .  S
Zr1037     O1064   2.468       .  S
Zr1037     O1052   2.469       .  S
Zr1037     O1043   2.406       .  S
Zr1037     O1044   2.410       .  S
Zr1037     O1045   2.386       .  S
Zr1037     O1046   2.390       .  S
Zr1038     O1057   2.435       .  S
Zr1038     O1050   2.435       .  S
Zr1038     O1051   2.406       .  S
Zr1038     O1044   2.386       .  S
Zr1038     O1045   2.381       .  S
Zr1039     O1041   2.435       .  S
Zr1039     O1063   2.440       .  S
Zr1039     O1065   2.403       .  S
Zr1039     O1043   2.378       .  S
Zr1039     O1046   2.379       .  S
Zr1040     O1066   2.435       .  S
Zr1040     O1067   2.437       .  S
Zr1040     O1042   2.437       .  S
Zr1040     O1043   2.390       .  S
Zr1040     O1044   2.388       .  S
O1041      H1078   0.990       .  S
O1042      H1073   0.991       .  S
O1042      H1087   0.990       .  S
O1044      H1070   0.965       .  S
O1045     Zr1055   2.376       .  S
O1046     Zr1055   2.378       .  S
O1046      H1071   0.966       .  S
C1049      C1103   1.509       .  S
O1050      H1086   0.990       .  S
O1051      C1053   1.280       .  A
O1052      C1053   1.292       .  A
O1054     Zr1055   2.441       .  S
O1054      H1083   0.990       .  S
Zr1055     O1058   2.437       .  S
Zr1055     O1059   2.441       .  S
Zr1055     O1060   2.412       .  S
O1056      C1061   1.289       .  A
O1057      H1074   0.990       .  S
O1057      H1089   0.990       .  S
O1058      H1075   0.989       .  S
O1059      H1079   0.990       .  S
O1059      H1088   0.990       .  S
O1060      C1061   1.280       .  A
O1062      H1081   0.990       .  S
O1062      H1085   0.990       .  S
O1063      H1077   0.990       .  S
O1063      H1084   0.990       .  S
O1064      C1068   1.291       .  A
O1065      C1068   1.282       .  A
O1066      H1076   0.990       .  S
O1067      H1080   0.990       .  S
C1068      C1091   1.512       .  S
C1091      C1092   1.542       .  S
C1091      C1097   1.537       .  S
C1091      C1095   1.530       .  S
C1092      C1093   1.366       .  D
C1092      H1099   1.087       .  S
C1093      C1094   1.540       .  S
C1093      C1137   1.473       .  S
C1094      C1098   1.547       .  S
C1094      C1096   1.531       .  S
C1094      H1100   1.111       .  S
C1095      C1096   1.351       .  D
C1095      H1101   1.088       .  S
C1096      C1182   1.461       .  S
C1097      C1098   1.381       .  D
C1097      H1102   1.086       .  S
C1098      C1143   1.490       .  S
C1103      C1104   1.529       .  S
C1103      C1109   1.535       .  S
C1103      C1107   1.541       .  S
C1104      C1105   1.350       .  D
C1104      H1111   1.088       .  S
C1105      C1106   1.531       .  S
C1105      C1185   1.460       .  S
C1106      C1110   1.549       .  S
C1106      C1108   1.540       .  S
C1107      C1108   1.366       .  D
C1107      H1113   1.087       .  S
C1108      C1151   1.473       .  S
C1109      C1110   1.380       .  D
C1109      H1114   1.086       .  S
C1110      C1138   1.489       .  S
Zr1115     O1116   2.435       .  S
Zr1115     O2317   2.445   1_455  S
Zr1115     O1118   2.475       .  S
Zr1115     O1121   2.474       .  S
Zr1115     O2323   2.388   1_455  S
Zr1115     O2324   2.383   1_455  S
O1116      H1172   0.990       .  S
O1116      H1180   0.991       .  S
O1117     Zr2315   2.445       .  S
O1117      C1137   1.283       .  A
O1118      C1139   1.287       .  A
O1119     Zr2329   2.413   1_455  S
O1119      C1138   1.281       .  A
O1120     Zr2328   2.392   1_455  S
O1122     Zr1130   2.424       .  S
O1122      C1137   1.282       .  A
O1123     Zr2315   2.388       .  S
O1123     Zr1130   2.377       .  S
O1124     Zr2315   2.383       .  S
O1124     Zr1130   2.373       .  S
O1124      H1159   0.966       .  S
O1125     Zr2328   2.399   1_455  S
O1125      H1162   0.965       .  S
O1126     Zr2329   2.380   1_455  S
Zr1127     O1152   2.434       .  S
Zr1127     O1146   2.443       .  S
Zr1127     O1154   2.479       .  S
Zr1127     O1136   2.393       .  S
Zr1128     O2347   2.438       .  S
Zr1128     O1140   2.436       .  S
Zr1128     O2320   2.392       .  S
Zr1128     O1141   2.411       .  S
Zr1128     O2325   2.399       .  S
Zr1128     O1134   2.387       .  S
Zr1128     O1135   2.387       .  S
Zr1129     O2331   2.437       .  S
Zr1129     O1153   2.440       .  S
Zr1129     O2319   2.413       .  S
Zr1129     O2326   2.380       .  S
Zr1129     O1133   2.393       .  S
Zr1130     O1157   2.433       .  S
Zr1130     O1132   2.438       .  S
O1131     Zr2329   2.437   1_455  S
O1131      H1168   0.990       .  S
O1132      H1163   0.989       .  S
O1132      H1177   0.990       .  S
O1134      H1160   0.965       .  S
O1135     Zr1745   2.375       .  S
O1136     Zr2345   2.376       .  S
O1136      H2361   0.966       .  S
O1140      H1176   0.990       .  S
O1141      C1143   1.280       .  A
O1142      C1143   1.294       .  A
O1144      H1173   0.990       .  S
Zr1145     O1149   2.441       .  S
Zr1145     O1150   2.424       .  S
Zr1145     O1735   2.375   1_565  S
Zr1145     O2336   2.376       .  S
O1146      C2351   1.283       .  A
O1147     Zr2328   2.438   1_455  S
O1147      H1164   0.990       .  S
O1147      H1179   0.990       .  S
O1148      H1165   0.990       .  S
O1149      H1169   0.990       .  S
O1149      H1178   0.990       .  S
O1150      C1151   1.282       .  A
C1151      O2346   1.283   1_455  A
O1152      H1171   0.990       .  S
O1152      H1175   0.990       .  S
O1153      H1167   0.990       .  S
O1153      H1174   0.990       .  S
O1154      C1158   1.289       .  A
O1155      C1158   1.280   1_554  A
H1161      O2336   0.966       .  S
C1181      C1182   1.402       .  A
C1181      C1186   1.394       .  A
C1181      H1188   1.081       .  S
C1182      C1183   1.397       .  A
C1183     Br1190   1.911       .  S
C1184      C1185   1.402       .  A
C1184      H1189   1.081       .  S
C1186     Br1187   1.910       .  S
C1191      C2392   1.411       .  A
C1191      C1196   1.393       .  A
C1191      H1198   1.082       .  S
C1192      C2391   1.411   1_455  A
C1193      C2194   1.395   1_455  A
C1193     Br1200   1.909       .  S
C1194      C1993   1.395       .  A
C1194      C1195   1.412   1_554  A
C1195      C1196   1.409       .  A
C1196     Br1197   1.908       .  S
C1201      C1202   1.525       .  S
C1201      C1207   1.527       .  S
C1201      C1605   1.540   1_554  S
C1201      C1339   1.507       .  S
C1202      C1203   1.362       .  D
C1203      C1604   1.547       .  S
C1203      C1792   1.499   1_554  S
C1204      C1403   1.547       .  S
C1204      C1408   1.549       .  S
C1204      C1206   1.535       .  S
C1204      H1210   1.103       .  S
C1205      C1401   1.541       .  S
C1205      C1206   1.363       .  D
C1205      H1211   1.087       .  S
C1206      C1261   1.471       .  S
C1207      C1208   1.378       .  D
C1207      H1212   1.086       .  S
C1208      C1604   1.550       .  S
C1208      C1248   1.478       .  S
C1213      C1414   1.540       .  S
C1213      C1219   1.529       .  S
C1213      C1217   1.528       .  S
C1213      C1358   1.511       .  S
C1214      C1613   1.539   1_554  S
C1214      C1215   1.362       .  D
C1214      H1221   1.087       .  S
C1215      C1616   1.534   1_554  S
C1215      C1247   1.468       .  S
C1216      C1415   1.534       .  S
C1216      C1220   1.547       .  S
C1216      C1218   1.547       .  S
C1216      H1222   1.103       .  S
C1217      C1218   1.362       .  D
C1217      H1223   1.087       .  S
C1218      C1395   1.500       .  S
C1219      C1220   1.380       .  D
C1219      H1224   1.086       .  S
C1220      C1253   1.480       .  S
Zr1225     O1226   2.436       .  S
Zr1225     O1227   2.449       .  S
Zr1225     O1228   2.463       .  S
Zr1225     O1231   2.459       .  S
Zr1225     O1233   2.388       .  S
Zr1225     O1234   2.388       .  S
Zr1225     O1235   2.404       .  S
Zr1225     O1236   2.405       .  S
O1226      H1282   0.990       .  S
O1226      H1290   0.990       .  S
O1227      C1247   1.288       .  A
O1228      C1249   1.289       .  A
O1229     Zr1239   2.410       .  S
O1229      C1248   1.281       .  A
O1230     Zr1238   2.404       .  S
O1230      C1249   1.282       .  A
O1231      C1248   1.290       .  A
O1232     Zr1240   2.413       .  S
O1232      C1247   1.280       .  A
O1233     Zr1238   2.383       .  S
O1233     Zr1240   2.377       .  S
O1234     Zr1239   2.380       .  S
O1234     Zr1240   2.372       .  S
O1234      H1269   0.966       .  S
O1235     Zr1238   2.379       .  S
O1235     Zr1255   2.385       .  S
O1235      H1272   0.965       .  S
O1236     Zr1239   2.379       .  S
O1236     Zr1255   2.393       .  S
Zr1237     O1262   2.436       .  S
Zr1237     O1256   2.456       .  S
Zr1237     O1264   2.467       .  S
Zr1237     O1252   2.468       .  S
Zr1237     O1243   2.406       .  S
Zr1237     O1244   2.409       .  S
Zr1237     O1245   2.385       .  S
Zr1237     O1246   2.391       .  S
Zr1238     O1257   2.435       .  S
Zr1238     O1250   2.435       .  S
Zr1238     O1251   2.405       .  S
Zr1238     O1244   2.386       .  S
Zr1238     O1245   2.380       .  S
Zr1239     O1241   2.436       .  S
Zr1239     O1263   2.440       .  S
Zr1239     O1265   2.403       .  S
Zr1239     O1243   2.378       .  S
Zr1239     O1246   2.380       .  S
Zr1240     O1266   2.436       .  S
Zr1240     O1267   2.438       .  S
Zr1240     O1242   2.437       .  S
Zr1240     O1243   2.390       .  S
Zr1240     O1244   2.389       .  S
O1241      H1278   0.990       .  S
O1242      H1273   0.991       .  S
O1242      H1287   0.990       .  S
O1244      H1270   0.965       .  S
O1245     Zr1255   2.376       .  S
O1246     Zr1255   2.378       .  S
O1246      H1271   0.966       .  S
C1249      C1303   1.508       .  S
O1250      H1286   0.990       .  S
O1251      C1253   1.280       .  A
O1252      C1253   1.292       .  A
O1254     Zr1255   2.442       .  S
O1254      H1283   0.990       .  S
Zr1255     O1258   2.437       .  S
Zr1255     O1259   2.442       .  S
Zr1255     O1260   2.413       .  S
O1256      C1261   1.290       .  A
O1257      H1274   0.990       .  S
O1257      H1289   0.990       .  S
O1258      H1275   0.989       .  S
O1259      H1279   0.991       .  S
O1259      H1288   0.990       .  S
O1260      C1261   1.280       .  A
O1262      H1281   0.990       .  S
O1262      H1285   0.990       .  S
O1263      H1277   0.990       .  S
O1263      H1284   0.990       .  S
O1264      C1268   1.290       .  A
O1265      C1268   1.282       .  A
O1266      H1276   0.990       .  S
O1267      H1280   0.990       .  S
C1268      C1291   1.511       .  S
C1291      C1292   1.543       .  S
C1291      C1297   1.537       .  S
C1291      C1295   1.529       .  S
C1292      C1293   1.365       .  D
C1292      H1299   1.087       .  S
C1293      C1294   1.540       .  S
C1293      C1337   1.474       .  S
C1294      C1298   1.548       .  S
C1294      C1296   1.531       .  S
C1294      H1300   1.111       .  S
C1295      C1296   1.351       .  D
C1295      H1301   1.088       .  S
C1296      C1382   1.461       .  S
C1297      C1298   1.381       .  D
C1297      H1302   1.086       .  S
C1298      C1343   1.490       .  S
C1303      C1304   1.529       .  S
C1303      C1309   1.535       .  S
C1303      C1307   1.542       .  S
C1304      C1305   1.351       .  D
C1304      H1311   1.088       .  S
C1305      C1306   1.530       .  S
C1305      C1385   1.460       .  S
C1306      C1310   1.549       .  S
C1306      C1308   1.541       .  S
C1306      H1912   1.111       .  S
C1307      C1308   1.365       .  D
C1307      H1313   1.087       .  S
C1308      C1351   1.475       .  S
C1309      C1310   1.380       .  D
C1309      H1314   1.086       .  S
C1310      C1338   1.489       .  S
H1312      C1906   1.111       .  S
Zr1315     O1316   2.437       .  S
Zr1315     O1318   2.475       .  S
Zr1315     O1321   2.476   1_545  S
Zr1315     O1725   2.418   1_554  S
Zr1315     O1926   2.408   1_545  S
O1316      H1372   0.991       .  S
O1316      H1380   0.991       .  S
O1317      C1337   1.284       .  A
O1318      C1339   1.287       .  A
O1319      C1338   1.280       .  A
O1320      C1539   1.279       .  A
O1321      C1938   1.293       .  A
O1322     Zr1330   2.426       .  S
O1322      C1337   1.282       .  A
O1323     Zr1728   2.391   1_554  S
O1323     Zr1330   2.378       .  S
O1324     Zr1929   2.386   1_545  S
O1324     Zr1330   2.373       .  S
O1324      H1359   0.966   1_545  S
O1325     Zr1515   2.417       .  S
O1325     Zr1945   2.388   1_545  S
O1325      H1362   0.965       .  S
O1326     Zr1915   2.408       .  S
O1326     Zr1745   2.395   1_554  S
Zr1327     O1352   2.433       .  S
Zr1327     O1346   2.444       .  S
Zr1327     O1354   2.478       .  S
Zr1327     O1942   2.483       .  S
Zr1327     O1533   2.411       .  S
Zr1327     O1934   2.409       .  S
Zr1327     O1935   2.381   1_655  S
Zr1327     O1336   2.392   1_655  S
Zr1328     O1340   2.437       .  S
Zr1328     O1341   2.411       .  S
Zr1328     O1523   2.391       .  S
Zr1328     O1334   2.387       .  S
Zr1328     O1335   2.388   1_655  S
Zr1329     O1353   2.441       .  S
Zr1329     O1755   2.390       .  S
Zr1329     O1924   2.385       .  S
Zr1329     O1333   2.392       .  S
Zr1329     O1736   2.389   1_654  S
Zr1330     O1956   2.435   1_545  S
Zr1330     O1357   2.433       .  S
Zr1330     O1332   2.437       .  S
Zr1330     O1933   2.389   1_545  S
Zr1330     O1734   2.390   1_554  S
O1331      H1368   0.990       .  S
O1332      H1363   0.989       .  S
O1332      H1377   0.990       .  S
O1333     Zr1727   2.412   1_554  S
O1333     Zr1930   2.389       .  S
O1334     Zr1927   2.409   1_545  S
O1334     Zr1530   2.389       .  S
O1334      H1360   0.965       .  S
O1335     Zr1927   2.381   1_445  S
O1336     Zr1529   2.389   1_455  S
C1338      O1921   1.293       .  A
C1339      O1720   1.279   1_554  A
O1340      H1376   0.990       .  S
O1341      C1343   1.281       .  A
O1342     Zr1927   2.483   1_545  S
O1342      C1343   1.294       .  A
O1344     Zr1945   2.435       .  S
O1344      H1373   0.990   1_565  S
Zr1345     O1944   2.435       .  S
Zr1345     O1948   2.433       .  S
Zr1345     O1349   2.441       .  S
Zr1345     O1350   2.427       .  S
Zr1345     O1925   2.388       .  S
Zr1345     O1526   2.395       .  S
O1347      H1364   0.990       .  S
O1347      H1379   0.990       .  S
O1348     Zr1945   2.433   1_545  S
O1348      H1365   0.990       .  S
O1349      H1369   0.990       .  S
O1349      H1378   0.990       .  S
O1350      C1351   1.282       .  A
O1352      H1371   0.990       .  S
O1352      H1375   0.990       .  S
O1353      H1367   0.990       .  S
O1353      H1374   0.990       .  S
O1354      C1358   1.289       .  A
O1355     Zr1529   2.388       .  S
O1355      C1358   1.279       .  A
O1356     Zr1930   2.435       .  S
O1356      H1966   0.990       .  S
O1357      H1770   0.990   1_554  S
H1366      O1956   0.990       .  S
H1370      O1557   0.990       .  S
C1381      C1382   1.402       .  A
C1381      C1386   1.394       .  A
C1381      H1388   1.081       .  S
C1382      C1383   1.397       .  A
C1383      C1984   1.394   1_545  A
C1383     Br1390   1.911       .  S
C1384      C1983   1.394       .  A
C1384      C1385   1.402       .  A
C1384      H1389   1.081       .  S
C1385      C1986   1.397       .  A
C1386      C1985   1.397   1_545  A
C1386     Br1387   1.910       .  S
C1391      C1396   1.393       .  A
C1391      H1398   1.082       .  S
C1392      C1403   1.499       .  S
C1392      C1593   1.409       .  A
C1393      C1792   1.409   1_554  A
C1393     Br1400   1.908       .  S
C1394      C1395   1.412       .  A
C1394      H1599   1.082       .  S
C1395      C1396   1.409       .  A
C1396     Br1397   1.908       .  S
H1399      C1794   1.082       .  S
C1401      C1402   1.526       .  S
C1401      C1407   1.527       .  S
C1401      C1539   1.508       .  S
C1402      C1403   1.362       .  D
C1404      C1603   1.548       .  S
C1404      C1608   1.549       .  S
C1404      C1406   1.535       .  S
C1404      H1410   1.102       .  S
C1405      C1601   1.541       .  S
C1405      C1406   1.363       .  D
C1405      H1411   1.087       .  S
C1406      C1461   1.471       .  S
C1407      C1408   1.379       .  D
C1407      H1412   1.086       .  S
C1408      C1448   1.477       .  S
C1413      C1614   1.540       .  S
C1413      C1419   1.530       .  S
C1413      C1417   1.528       .  S
C1413      C1558   1.512       .  S
C1414      C1415   1.362       .  D
C1414      H1421   1.087       .  S
C1415      C1447   1.468       .  S
C1416      C1615   1.533       .  S
C1416      C1420   1.547       .  S
C1416      C1418   1.547       .  S
C1416      H1422   1.103       .  S
C1417      C1418   1.362       .  D
C1417      H1423   1.087       .  S
C1418      C1595   1.500       .  S
C1419      C1420   1.380       .  D
C1419      H1424   1.086       .  S
C1420      C1453   1.480       .  S
Zr1425     O1426   2.436       .  S
Zr1425     O1427   2.450       .  S
Zr1425     O1428   2.465       .  S
Zr1425     O1431   2.458       .  S
Zr1425     O1433   2.388       .  S
Zr1425     O1434   2.388       .  S
Zr1425     O1435   2.405       .  S
Zr1425     O1436   2.406       .  S
O1426      H1482   0.990       .  S
O1426      H1490   0.990       .  S
O1427      C1447   1.288       .  A
O1428      C1449   1.290       .  A
O1429     Zr1439   2.408       .  S
O1429      C1448   1.281       .  A
O1430     Zr1438   2.404       .  S
O1430      C1449   1.282       .  A
O1431      C1448   1.290       .  A
O1432     Zr1440   2.413       .  S
O1432      C1447   1.280       .  A
O1433     Zr1438   2.383       .  S
O1433     Zr1440   2.377       .  S
O1434     Zr1439   2.380       .  S
O1434     Zr1440   2.371       .  S
O1434      H1469   0.966       .  S
O1435     Zr1438   2.380       .  S
O1435     Zr1455   2.386       .  S
O1435      H1472   0.965       .  S
O1436     Zr1439   2.380       .  S
O1436     Zr1455   2.392       .  S
Zr1437     O1462   2.437       .  S
Zr1437     O1456   2.455       .  S
Zr1437     O1464   2.468       .  S
Zr1437     O1452   2.468       .  S
Zr1437     O1443   2.404       .  S
Zr1437     O1444   2.410       .  S
Zr1437     O1445   2.386       .  S
Zr1437     O1446   2.390       .  S
Zr1438     O1457   2.436       .  S
Zr1438     O1450   2.435       .  S
Zr1438     O1451   2.405       .  S
Zr1438     O1444   2.387       .  S
Zr1438     O1445   2.381       .  S
Zr1439     O1441   2.437       .  S
Zr1439     O1463   2.440       .  S
Zr1439     O1465   2.402       .  S
Zr1439     O1443   2.377       .  S
Zr1439     O1446   2.379       .  S
Zr1440     O1466   2.435       .  S
Zr1440     O1467   2.437       .  S
Zr1440     O1442   2.437       .  S
Zr1440     O1443   2.390       .  S
Zr1440     O1444   2.389       .  S
O1441      H1478   0.990       .  S
O1442      H1473   0.991       .  S
O1442      H1487   0.990       .  S
O1444      H1470   0.965       .  S
O1445     Zr1455   2.376       .  S
O1446     Zr1455   2.377       .  S
O1446      H1471   0.966       .  S
C1449      C1503   1.508       .  S
O1450      H1486   0.990       .  S
O1451      C1453   1.280       .  A
O1452      C1453   1.292       .  A
O1454     Zr1455   2.441       .  S
O1454      H1483   0.990       .  S
Zr1455     O1458   2.436       .  S
Zr1455     O1459   2.442       .  S
Zr1455     O1460   2.414       .  S
O1456      C1461   1.289       .  A
O1457      H1474   0.990       .  S
O1457      H1489   0.990       .  S
O1458      H1475   0.989       .  S
O1459      H1479   0.990       .  S
O1459      H1488   0.990       .  S
O1460      C1461   1.280       .  A
O1462      H1481   0.990       .  S
O1462      H1485   0.990       .  S
O1463      H1477   0.990       .  S
O1463      H1484   0.990       .  S
O1464      C1468   1.290       .  A
O1465      C1468   1.282       .  A
O1466      H1476   0.990       .  S
O1467      H1480   0.990       .  S
C1468      C1491   1.511       .  S
C1491      C1492   1.542       .  S
C1491      C1497   1.537       .  S
C1491      C1495   1.529       .  S
C1492      C1493   1.365       .  D
C1492      H1499   1.087       .  S
C1493      C1494   1.540       .  S
C1493      C1537   1.474       .  S
C1494      C1498   1.547       .  S
C1494      C1496   1.531       .  S
C1494      H1500   1.111       .  S
C1495      C1496   1.351       .  D
C1495      H1501   1.088       .  S
C1496      C1582   1.460       .  S
C1497      C1498   1.381       .  D
C1497      H1502   1.086       .  S
C1498      C1543   1.489       .  S
C1503      C1504   1.529       .  S
C1503      C1509   1.535       .  S
C1503      C1507   1.542       .  S
C1504      C1505   1.351       .  D
C1504      H1511   1.088       .  S
C1505      C1506   1.531       .  S
C1505      C1585   1.460       .  S
C1506      C1510   1.549       .  S
C1506      C1508   1.541       .  S
C1506      H2112   1.111       .  S
C1507      C1508   1.365       .  D
C1507      H1513   1.087       .  S
C1508      C1551   1.475       .  S
C1509      C1510   1.380       .  D
C1509      H1514   1.086       .  S
C1510      C1538   1.488       .  S
H1512      C2106   1.111       .  S
Zr1515     O1516   2.435       .  S
Zr1515     O1518   2.476       .  S
Zr1515     O1521   2.474   1_545  S
Zr1515     O2126   2.408   1_545  S
O1516      H1572   0.990       .  S
O1516      H1580   0.990       .  S
O1517      C1537   1.283       .  A
O1518      C1539   1.288       .  A
O1519      C1538   1.280       .  A
O1520      C1739   1.279       .  A
O1521      C2138   1.292       .  A
O1522     Zr1530   2.425       .  S
O1522      C1537   1.282       .  A
O1523     Zr1530   2.377       .  S
O1524     Zr2129   2.386   1_545  S
O1524     Zr1530   2.374       .  S
O1524      H1559   0.966   1_545  S
O1525     Zr1715   2.417       .  S
O1525     Zr2145   2.387   1_545  S
O1525      H1562   0.965       .  S
O1526     Zr2115   2.408       .  S
Zr1527     O1552   2.435       .  S
Zr1527     O1546   2.446       .  S
Zr1527     O1554   2.480       .  S
Zr1527     O2142   2.483       .  S
Zr1527     O1733   2.412       .  S
Zr1527     O2134   2.410       .  S
Zr1527     O2135   2.382   1_655  S
Zr1527     O1536   2.393   1_655  S
Zr1528     O1540   2.437       .  S
Zr1528     O1541   2.411       .  S
Zr1528     O1723   2.391       .  S
Zr1528     O1534   2.388       .  S
Zr1528     O1535   2.388   1_655  S
Zr1529     O1553   2.441       .  S
Zr1529     O2124   2.386       .  S
Zr1529     O1533   2.392       .  S
Zr1530     O2156   2.434   1_545  S
Zr1530     O1557   2.433       .  S
Zr1530     O1532   2.438       .  S
Zr1530     O2133   2.389   1_545  S
O1531      H1568   0.990       .  S
O1532      H1563   0.989       .  S
O1532      H1577   0.990       .  S
O1533     Zr2130   2.388       .  S
O1534     Zr2127   2.410   1_545  S
O1534     Zr1730   2.390       .  S
O1534      H1560   0.966       .  S
O1535     Zr2127   2.382   1_445  S
O1536     Zr1729   2.388   1_455  S
C1538      O2121   1.292       .  A
O1540      H1576   0.990       .  S
O1541      C1543   1.280       .  A
O1542     Zr2127   2.482   1_545  S
O1542      C1543   1.294       .  A
O1544     Zr2145   2.435   1_545  S
O1544      H1573   0.990       .  S
Zr1545     O2144   2.435       .  S
Zr1545     O2148   2.432       .  S
Zr1545     O1549   2.441       .  S
Zr1545     O1550   2.425       .  S
Zr1545     O2125   2.386       .  S
Zr1545     O1726   2.394       .  S
O1547      H1564   0.990       .  S
O1547      H1579   0.990       .  S
O1548     Zr2145   2.432   1_545  S
O1548      H1565   0.990       .  S
O1549      H1569   0.990       .  S
O1549      H1578   0.990       .  S
O1550      C1551   1.282       .  A
O1552      H1571   0.990       .  S
O1552      H1575   0.991       .  S
O1553      H1567   0.990       .  S
O1553      H1574   0.990       .  S
O1554      C1558   1.289       .  A
O1555     Zr1729   2.389       .  S
O1555      C1558   1.279       .  A
O1556     Zr2130   2.434       .  S
O1556      H2166   0.990       .  S
H1566      O2156   0.990       .  S
H1570      O1757   0.990       .  S
C1581      C1582   1.402       .  A
C1581      C1586   1.393       .  A
C1581      H1588   1.081       .  S
C1582      C1583   1.397       .  A
C1583      C2184   1.394   1_545  A
C1583     Br1590   1.912       .  S
C1584      C2183   1.394       .  A
C1584      C1585   1.403       .  A
C1584      H1589   1.081       .  S
C1585      C2186   1.397       .  A
C1586      C2185   1.397   1_545  A
C1586     Br1587   1.910       .  S
C1591      C1596   1.393       .  A
C1591      H1598   1.082       .  S
C1592      C1603   1.499       .  S
C1592      C1793   1.409       .  A
C1593     Br1600   1.908       .  S
C1594      C1595   1.412       .  A
C1594      H1799   1.082       .  S
C1595      C1596   1.409       .  A
C1596     Br1597   1.908       .  S
C1601      C1602   1.525       .  S
C1601      C1607   1.527       .  S
C1601      C1739   1.507       .  S
C1602      C1603   1.362       .  D
C1604      C1606   1.536   1_554  S
C1604      H1610   1.103       .  S
C1605      C1606   1.363       .  D
C1605      H1611   1.087       .  S
C1606      C1661   1.471       .  S
C1607      C1608   1.379       .  D
C1607      H1612   1.086       .  S
C1608      C1648   1.478       .  S
C1613      C1619   1.530       .  S
C1613      C1617   1.529       .  S
C1613      C1758   1.512       .  S
C1614      C1615   1.363       .  D
C1614      H1621   1.087       .  S
C1615      C1647   1.467       .  S
C1616      C1620   1.548       .  S
C1616      C1618   1.547       .  S
C1616      H1622   1.103       .  S
C1617      C1618   1.363       .  D
C1617      H1623   1.087       .  S
C1618      C1795   1.500       .  S
C1619      C1620   1.380       .  D
C1619      H1624   1.086       .  S
C1620      C1653   1.481       .  S
Zr1625     O1626   2.437       .  S
Zr1625     O1627   2.451       .  S
Zr1625     O1628   2.465       .  S
Zr1625     O1631   2.460       .  S
Zr1625     O1633   2.389       .  S
Zr1625     O1634   2.389       .  S
Zr1625     O1635   2.405       .  S
Zr1625     O1636   2.405       .  S
O1626      H1682   0.990       .  S
O1626      H1690   0.990       .  S
O1627      C1647   1.288       .  A
O1628      C1649   1.290       .  A
O1629     Zr1639   2.407       .  S
O1629      C1648   1.280       .  A
O1630     Zr1638   2.405       .  S
O1630      C1649   1.282       .  A
O1631      C1648   1.291       .  A
O1632     Zr1640   2.412       .  S
O1632      C1647   1.280       .  A
O1633     Zr1638   2.383       .  S
O1633     Zr1640   2.377       .  S
O1634     Zr1639   2.381       .  S
O1634     Zr1640   2.372       .  S
O1634      H1669   0.966       .  S
O1635     Zr1638   2.380       .  S
O1635     Zr1655   2.385       .  S
O1635      H1672   0.965       .  S
O1636     Zr1639   2.380       .  S
O1636     Zr1655   2.392       .  S
Zr1637     O1662   2.437       .  S
Zr1637     O1656   2.456       .  S
Zr1637     O1664   2.469       .  S
Zr1637     O1652   2.469       .  S
Zr1637     O1643   2.406       .  S
Zr1637     O1644   2.410       .  S
Zr1637     O1645   2.387       .  S
Zr1637     O1646   2.390       .  S
Zr1638     O1657   2.435       .  S
Zr1638     O1650   2.435       .  S
Zr1638     O1651   2.406       .  S
Zr1638     O1644   2.386       .  S
Zr1638     O1645   2.381       .  S
Zr1639     O1641   2.435       .  S
Zr1639     O1663   2.440       .  S
Zr1639     O1665   2.403       .  S
Zr1639     O1643   2.378       .  S
Zr1639     O1646   2.379       .  S
Zr1640     O1666   2.435       .  S
Zr1640     O1667   2.437       .  S
Zr1640     O1642   2.438       .  S
Zr1640     O1643   2.390       .  S
Zr1640     O1644   2.389       .  S
O1641      H1678   0.990       .  S
O1642      H1673   0.991       .  S
O1642      H1687   0.990       .  S
O1644      H1670   0.965       .  S
O1645     Zr1655   2.376       .  S
O1646     Zr1655   2.378       .  S
O1646      H1671   0.966       .  S
C1649      C1703   1.509       .  S
O1650      H1686   0.990       .  S
O1651      C1653   1.280       .  A
O1652      C1653   1.292       .  A
O1654     Zr1655   2.441       .  S
O1654      H1683   0.990       .  S
Zr1655     O1658   2.437       .  S
Zr1655     O1659   2.441       .  S
Zr1655     O1660   2.412       .  S
O1656      C1661   1.289       .  A
O1657      H1674   0.990       .  S
O1657      H1689   0.990       .  S
O1658      H1675   0.989       .  S
O1659      H1679   0.990       .  S
O1659      H1688   0.990       .  S
O1660      C1661   1.280       .  A
O1662      H1681   0.990       .  S
O1662      H1685   0.990       .  S
O1663      H1677   0.990       .  S
O1663      H1684   0.990       .  S
O1664      C1668   1.291       .  A
O1665      C1668   1.282       .  A
O1666      H1676   0.990       .  S
O1667      H1680   0.990       .  S
C1668      C1691   1.512       .  S
C1691      C1692   1.542       .  S
C1691      C1697   1.537       .  S
C1691      C1695   1.530       .  S
C1692      C1693   1.366       .  D
C1692      H1699   1.087       .  S
C1693      C1694   1.540       .  S
C1693      C1737   1.473       .  S
C1694      C1698   1.547       .  S
C1694      C1696   1.531       .  S
C1694      H1700   1.111       .  S
C1695      C1696   1.351       .  D
C1695      H1701   1.088       .  S
C1696      C1782   1.461       .  S
C1697      C1698   1.381       .  D
C1697      H1702   1.086       .  S
C1698      C1743   1.490       .  S
C1703      C1704   1.529       .  S
C1703      C1709   1.535       .  S
C1703      C1707   1.541       .  S
C1704      C1705   1.350       .  D
C1704      H1711   1.088       .  S
C1705      C1706   1.531       .  S
C1705      C1785   1.460       .  S
C1706      C1710   1.549       .  S
C1706      C1708   1.540       .  S
C1706      H2312   1.111       .  S
C1707      C1708   1.365       .  D
C1707      H1713   1.087       .  S
C1708      C1751   1.473       .  S
C1709      C1710   1.380       .  D
C1709      H1714   1.086       .  S
C1710      C1738   1.489       .  S
H1712      C2306   1.111       .  S
Zr1715     O1716   2.435       .  S
Zr1715     O1718   2.475       .  S
Zr1715     O1721   2.474   1_545  S
Zr1715     O2326   2.408   1_545  S
O1716      H1772   0.990       .  S
O1716      H1780   0.991       .  S
O1717      C1737   1.283       .  A
O1718      C1739   1.287       .  A
O1719      C1738   1.281       .  A
O1721      C2338   1.292       .  A
O1722     Zr1730   2.424       .  S
O1722      C1737   1.282       .  A
O1723     Zr1730   2.377       .  S
O1724     Zr2329   2.386   1_545  S
O1724     Zr1730   2.373       .  S
O1724      H1759   0.966   1_545  S
O1725     Zr2345   2.387   1_545  S
O1725      H1762   0.965       .  S
O1726     Zr2315   2.408       .  S
Zr1727     O1752   2.434       .  S
Zr1727     O1746   2.443       .  S
Zr1727     O1754   2.479       .  S
Zr1727     O2342   2.483       .  S
Zr1727     O2334   2.409       .  S
Zr1727     O2335   2.381   1_655  S
Zr1727     O1736   2.392   1_655  S
Zr1728     O1740   2.436       .  S
Zr1728     O1741   2.412       .  S
Zr1728     O1734   2.387       .  S
Zr1728     O1735   2.387   1_655  S
Zr1729     O1753   2.440       .  S
Zr1729     O2324   2.386       .  S
Zr1729     O1733   2.393       .  S
Zr1730     O2356   2.433   1_545  S
Zr1730     O1757   2.433       .  S
Zr1730     O1732   2.438       .  S
Zr1730     O2333   2.390   1_545  S
O1731      H1768   0.990       .  S
O1732      H1763   0.989       .  S
O1732      H1777   0.990       .  S
O1733     Zr2330   2.390       .  S
O1734     Zr2327   2.409   1_545  S
O1734      H1760   0.965       .  S
O1735     Zr2327   2.381   1_445  S
C1738      O2321   1.292       .  A
O1740      H1776   0.990       .  S
O1741      C1743   1.280       .  A
O1742     Zr2327   2.483   1_545  S
O1742      C1743   1.294       .  A
O1744     Zr2345   2.435   1_545  S
O1744      H1773   0.990       .  S
Zr1745     O2344   2.435       .  S
Zr1745     O2348   2.434       .  S
Zr1745     O1749   2.441       .  S
Zr1745     O1750   2.423       .  S
Zr1745     O2325   2.387       .  S
O1747      H1764   0.990       .  S
O1747      H1779   0.990       .  S
O1748     Zr2345   2.434   1_545  S
O1748      H1765   0.990       .  S
O1749      H1769   0.990       .  S
O1749      H1778   0.990       .  S
O1750      C1751   1.282       .  A
O1752      H1771   0.990       .  S
O1752      H1775   0.990       .  S
O1753      H1767   0.990       .  S
O1753      H1774   0.990       .  S
O1754      C1758   1.289       .  A
O1755      C1758   1.280   1_554  A
O1756     Zr2330   2.434       .  S
O1756      H2366   0.990       .  S
H1766      O2356   0.990       .  S
C1781      C1782   1.402       .  A
C1781      C1786   1.394       .  A
C1781      H1788   1.080       .  S
C1782      C1783   1.398       .  A
C1783      C2384   1.394   1_545  A
C1783     Br1790   1.911       .  S
C1784      C2383   1.394       .  A
C1784      C1785   1.402       .  A
C1784      H1789   1.081       .  S
C1785      C2386   1.396       .  A
C1786      C2385   1.396   1_545  A
C1786     Br1787   1.911       .  S
C1791      C1796   1.393       .  A
C1791      H1798   1.082       .  S
C1793     Br1800   1.908       .  S
C1794      C1795   1.412   1_554  A
C1795      C1796   1.409       .  A
C1796     Br1797   1.908       .  S
C1801      C1802   1.526       .  S
C1801      C1807   1.527       .  S
C1801      C2205   1.540   1_554  S
C1801      C1939   1.507       .  S
C1802      C1803   1.363       .  D
C1803      C2204   1.547       .  S
C1803      C2392   1.500   1_554  S
C1804      C2003   1.547       .  S
C1804      C2008   1.549       .  S
C1804      C1806   1.535       .  S
C1804      H1810   1.103       .  S
C1805      C2001   1.541       .  S
C1805      C1806   1.363       .  D
C1805      H1811   1.087       .  S
C1806      C1861   1.471       .  S
C1807      C1808   1.378       .  D
C1807      H1812   1.086       .  S
C1808      C2204   1.550       .  S
C1808      C1848   1.478       .  S
C1813      C2014   1.540       .  S
C1813      C1819   1.529       .  S
C1813      C1817   1.528       .  S
C1813      C1958   1.511       .  S
C1814      C2213   1.539   1_554  S
C1814      C1815   1.362       .  D
C1814      H1821   1.087       .  S
C1815      C2216   1.534   1_554  S
C1815      C1847   1.468       .  S
C1816      C2015   1.534       .  S
C1816      C1820   1.548       .  S
C1816      C1818   1.547       .  S
C1816      H1822   1.103       .  S
C1817      C1818   1.363       .  D
C1817      H1823   1.087       .  S
C1818      C1995   1.500       .  S
C1819      C1820   1.380       .  D
C1819      H1824   1.086       .  S
C1820      C1853   1.480       .  S
Zr1825     O1826   2.436       .  S
Zr1825     O1827   2.450       .  S
Zr1825     O1828   2.463       .  S
Zr1825     O1831   2.459       .  S
Zr1825     O1833   2.388       .  S
Zr1825     O1834   2.388       .  S
Zr1825     O1835   2.404       .  S
Zr1825     O1836   2.405       .  S
O1826      H1882   0.990       .  S
O1826      H1890   0.990       .  S
O1827      C1847   1.288       .  A
O1828      C1849   1.289       .  A
O1829     Zr1839   2.410       .  S
O1829      C1848   1.281       .  A
O1830     Zr1838   2.404       .  S
O1830      C1849   1.282       .  A
O1831      C1848   1.290       .  A
O1832     Zr1840   2.413       .  S
O1832      C1847   1.280       .  A
O1833     Zr1838   2.383       .  S
O1833     Zr1840   2.377       .  S
O1834     Zr1839   2.380       .  S
O1834     Zr1840   2.372       .  S
O1834      H1869   0.966       .  S
O1835     Zr1838   2.379       .  S
O1835     Zr1855   2.385       .  S
O1835      H1872   0.965       .  S
O1836     Zr1839   2.379       .  S
O1836     Zr1855   2.392       .  S
Zr1837     O1862   2.437       .  S
Zr1837     O1856   2.457       .  S
Zr1837     O1864   2.467       .  S
Zr1837     O1852   2.468       .  S
Zr1837     O1843   2.406       .  S
Zr1837     O1844   2.409       .  S
Zr1837     O1845   2.385       .  S
Zr1837     O1846   2.391       .  S
Zr1838     O1857   2.436       .  S
Zr1838     O1850   2.435       .  S
Zr1838     O1851   2.406       .  S
Zr1838     O1844   2.386       .  S
Zr1838     O1845   2.381       .  S
Zr1839     O1841   2.436       .  S
Zr1839     O1863   2.440       .  S
Zr1839     O1865   2.403       .  S
Zr1839     O1843   2.378       .  S
Zr1839     O1846   2.380       .  S
Zr1840     O1866   2.436       .  S
Zr1840     O1867   2.438       .  S
Zr1840     O1842   2.437       .  S
Zr1840     O1843   2.390       .  S
Zr1840     O1844   2.389       .  S
O1841      H1878   0.990       .  S
O1842      H1873   0.991       .  S
O1842      H1887   0.990       .  S
O1844      H1870   0.965       .  S
O1845     Zr1855   2.376       .  S
O1846     Zr1855   2.377       .  S
O1846      H1871   0.966       .  S
C1849      C1903   1.508       .  S
O1850      H1886   0.990       .  S
O1851      C1853   1.280       .  A
O1852      C1853   1.292       .  A
O1854     Zr1855   2.442       .  S
O1854      H1883   0.990       .  S
Zr1855     O1858   2.436       .  S
Zr1855     O1859   2.442       .  S
Zr1855     O1860   2.413       .  S
O1856      C1861   1.290       .  A
O1857      H1874   0.990       .  S
O1857      H1889   0.990       .  S
O1858      H1875   0.989       .  S
O1859      H1879   0.991       .  S
O1859      H1888   0.990       .  S
O1860      C1861   1.280       .  A
O1862      H1881   0.990       .  S
O1862      H1885   0.990       .  S
O1863      H1877   0.990       .  S
O1863      H1884   0.990       .  S
O1864      C1868   1.290       .  A
O1865      C1868   1.282       .  A
O1866      H1876   0.990       .  S
O1867      H1880   0.990       .  S
C1868      C1891   1.511       .  S
C1891      C1892   1.542       .  S
C1891      C1897   1.537       .  S
C1891      C1895   1.529       .  S
C1892      C1893   1.366       .  D
C1892      H1899   1.087       .  S
C1893      C1894   1.540       .  S
C1893      C1937   1.474       .  S
C1894      C1898   1.548       .  S
C1894      C1896   1.531       .  S
C1894      H1900   1.111       .  S
C1895      C1896   1.351       .  D
C1895      H1901   1.088       .  S
C1896      C1982   1.461       .  S
C1897      C1898   1.381       .  D
C1897      H1902   1.086       .  S
C1898      C1943   1.490       .  S
C1903      C1904   1.529       .  S
C1903      C1909   1.535       .  S
C1903      C1907   1.541       .  S
C1904      C1905   1.351       .  D
C1904      H1911   1.088       .  S
C1905      C1906   1.531       .  S
C1905      C1985   1.461       .  S
C1906      C1910   1.549       .  S
C1906      C1908   1.541       .  S
C1907      C1908   1.365       .  D
C1907      H1913   1.087       .  S
C1908      C1951   1.475       .  S
C1909      C1910   1.380       .  D
C1909      H1914   1.086       .  S
C1910      C1938   1.489       .  S
Zr1915     O1916   2.437       .  S
Zr1915     O1918   2.475       .  S
Zr1915     O1921   2.477       .  S
Zr1915     O2325   2.418   1_554  S
O1916      H1972   0.991       .  S
O1916      H1980   0.991       .  S
O1917      C1937   1.284       .  A
O1918      C1939   1.287       .  A
O1919      C1938   1.281       .  A
O1920      C2139   1.279       .  A
O1922     Zr1930   2.426       .  S
O1922      C1937   1.282       .  A
O1923     Zr2328   2.391   1_554  S
O1923     Zr1930   2.378       .  S
O1924     Zr1930   2.374       .  S
O1924      H1959   0.966       .  S
O1925     Zr2115   2.418       .  S
O1925      H1962   0.965       .  S
O1926     Zr2345   2.395   1_554  S
Zr1927     O1952   2.433       .  S
Zr1927     O1946   2.444       .  S
Zr1927     O1954   2.478       .  S
Zr1927     O2133   2.411       .  S
Zr1927     O1936   2.392   1_655  S
Zr1928     O1940   2.437       .  S
Zr1928     O1941   2.412       .  S
Zr1928     O2123   2.391       .  S
Zr1928     O1934   2.387       .  S
Zr1928     O1935   2.388   1_655  S
Zr1929     O1953   2.441       .  S
Zr1929     O2355   2.390       .  S
Zr1929     O1933   2.392       .  S
Zr1929     O2336   2.389   1_654  S
Zr1930     O1957   2.434       .  S
Zr1930     O1932   2.437       .  S
Zr1930     O2334   2.390   1_554  S
O1931      H1968   0.990       .  S
O1932      H1963   0.989       .  S
O1932      H1977   0.990       .  S
O1933     Zr2327   2.412   1_554  S
O1934     Zr2130   2.389       .  S
O1934      H1960   0.965       .  S
O1936     Zr2129   2.389   1_455  S
C1939      O2320   1.279   1_554  A
O1940      H1976   0.990       .  S
O1941      C1943   1.281       .  A
O1942      C1943   1.294       .  A
O1944      H1973   0.990       .  S
Zr1945     O1949   2.441       .  S
Zr1945     O1950   2.427       .  S
Zr1945     O2126   2.395       .  S
O1947      H1964   0.990       .  S
O1947      H1979   0.990       .  S
O1948      H1965   0.990       .  S
O1949      H1969   0.990       .  S
O1949      H1978   0.990       .  S
O1950      C1951   1.282       .  A
O1952      H1971   0.990       .  S
O1952      H1975   0.990       .  S
O1953      H1967   0.990       .  S
O1953      H1974   0.990       .  S
O1954      C1958   1.289       .  A
O1955     Zr2129   2.388       .  S
O1955      C1958   1.279       .  A
O1957      H2370   0.990   1_554  S
H1970      O2157   0.990       .  S
C1981      C1982   1.402       .  A
C1981      C1986   1.394       .  A
C1981      H1988   1.081       .  S
C1982      C1983   1.397       .  A
C1983     Br1990   1.911       .  S
C1984      C1985   1.402       .  A
C1984      H1989   1.081       .  S
C1986     Br1987   1.910       .  S
C1991      C1996   1.393       .  A
C1991      H1998   1.082       .  S
C1992      C2003   1.499       .  S
C1992      C2193   1.409       .  A
C1993      C2392   1.409   1_554  A
C1993     Br2000   1.908       .  S
C1994      C1995   1.412       .  A
C1994      H2199   1.081       .  S
C1995      C1996   1.409       .  A
C1996     Br1997   1.908       .  S
H1999      C2394   1.082       .  S
C2001      C2002   1.526       .  S
C2001      C2007   1.527       .  S
C2001      C2139   1.508       .  S
C2002      C2003   1.362       .  D
C2004      C2203   1.548       .  S
C2004      C2208   1.549       .  S
C2004      C2006   1.535       .  S
C2004      H2010   1.102       .  S
C2005      C2201   1.541       .  S
C2005      C2006   1.363       .  D
C2005      H2011   1.087       .  S
C2006      C2061   1.471       .  S
C2007      C2008   1.379       .  D
C2007      H2012   1.086       .  S
C2008      C2048   1.477       .  S
C2013      C2214   1.540       .  S
C2013      C2019   1.529       .  S
C2013      C2017   1.528       .  S
C2013      C2158   1.512       .  S
C2014      C2015   1.362       .  D
C2014      H2021   1.087       .  S
C2015      C2047   1.468       .  S
C2016      C2215   1.533       .  S
C2016      C2020   1.547       .  S
C2016      C2018   1.547       .  S
C2016      H2022   1.103       .  S
C2017      C2018   1.363       .  D
C2017      H2023   1.087       .  S
C2018      C2195   1.500       .  S
C2019      C2020   1.380       .  D
C2019      H2024   1.086       .  S
C2020      C2053   1.480       .  S
Zr2025     O2026   2.436       .  S
Zr2025     O2027   2.450       .  S
Zr2025     O2028   2.465       .  S
Zr2025     O2031   2.458       .  S
Zr2025     O2033   2.388       .  S
Zr2025     O2034   2.388       .  S
Zr2025     O2035   2.405       .  S
Zr2025     O2036   2.405       .  S
O2026      H2082   0.990       .  S
O2026      H2090   0.990       .  S
O2027      C2047   1.288       .  A
O2028      C2049   1.290       .  A
O2029     Zr2039   2.408       .  S
O2029      C2048   1.281       .  A
O2030     Zr2038   2.404       .  S
O2030      C2049   1.282       .  A
O2031      C2048   1.290       .  A
O2032     Zr2040   2.413       .  S
O2032      C2047   1.280       .  A
O2033     Zr2038   2.383       .  S
O2033     Zr2040   2.377       .  S
O2034     Zr2039   2.380       .  S
O2034     Zr2040   2.372       .  S
O2034      H2069   0.966       .  S
O2035     Zr2038   2.379       .  S
O2035     Zr2055   2.386       .  S
O2035      H2072   0.965       .  S
O2036     Zr2039   2.379       .  S
O2036     Zr2055   2.392       .  S
Zr2037     O2062   2.437       .  S
Zr2037     O2056   2.455       .  S
Zr2037     O2064   2.468       .  S
Zr2037     O2052   2.468       .  S
Zr2037     O2043   2.404       .  S
Zr2037     O2044   2.410       .  S
Zr2037     O2045   2.386       .  S
Zr2037     O2046   2.390       .  S
Zr2038     O2057   2.436       .  S
Zr2038     O2050   2.435       .  S
Zr2038     O2051   2.405       .  S
Zr2038     O2044   2.387       .  S
Zr2038     O2045   2.381       .  S
Zr2039     O2041   2.437       .  S
Zr2039     O2063   2.440       .  S
Zr2039     O2065   2.402       .  S
Zr2039     O2043   2.377       .  S
Zr2039     O2046   2.379       .  S
Zr2040     O2066   2.435       .  S
Zr2040     O2067   2.437       .  S
Zr2040     O2042   2.437       .  S
Zr2040     O2043   2.389       .  S
Zr2040     O2044   2.389       .  S
O2041      H2078   0.990       .  S
O2042      H2073   0.991       .  S
O2042      H2087   0.990       .  S
O2044      H2070   0.965       .  S
O2045     Zr2055   2.376       .  S
O2046     Zr2055   2.377       .  S
O2046      H2071   0.966       .  S
C2049      C2103   1.508       .  S
O2050      H2086   0.990       .  S
O2051      C2053   1.280       .  A
O2052      C2053   1.292       .  A
O2054     Zr2055   2.441       .  S
O2054      H2083   0.990       .  S
Zr2055     O2058   2.436       .  S
Zr2055     O2059   2.442       .  S
Zr2055     O2060   2.413       .  S
O2056      C2061   1.289       .  A
O2057      H2074   0.990       .  S
O2057      H2089   0.990       .  S
O2058      H2075   0.989       .  S
O2059      H2079   0.990       .  S
O2059      H2088   0.990       .  S
O2060      C2061   1.280       .  A
O2062      H2081   0.990       .  S
O2062      H2085   0.990       .  S
O2063      H2077   0.990       .  S
O2063      H2084   0.990       .  S
O2064      C2068   1.290       .  A
O2065      C2068   1.282       .  A
O2066      H2076   0.990       .  S
O2067      H2080   0.990       .  S
C2068      C2091   1.511       .  S
C2091      C2092   1.542       .  S
C2091      C2097   1.537       .  S
C2091      C2095   1.529       .  S
C2092      C2093   1.365       .  D
C2092      H2099   1.087       .  S
C2093      C2094   1.540       .  S
C2093      C2137   1.474       .  S
C2094      C2098   1.547       .  S
C2094      C2096   1.531       .  S
C2094      H2100   1.111       .  S
C2095      C2096   1.351       .  D
C2095      H2101   1.088       .  S
C2096      C2182   1.460       .  S
C2097      C2098   1.381       .  D
C2097      H2102   1.086       .  S
C2098      C2143   1.489       .  S
C2103      C2104   1.529       .  S
C2103      C2109   1.535       .  S
C2103      C2107   1.542       .  S
C2104      C2105   1.351       .  D
C2104      H2111   1.088       .  S
C2105      C2106   1.531       .  S
C2105      C2185   1.460       .  S
C2106      C2110   1.549       .  S
C2106      C2108   1.541       .  S
C2107      C2108   1.365       .  D
C2107      H2113   1.087       .  S
C2108      C2151   1.475       .  S
C2109      C2110   1.380       .  D
C2109      H2114   1.086       .  S
C2110      C2138   1.488       .  S
Zr2115     O2116   2.435       .  S
Zr2115     O2118   2.476       .  S
Zr2115     O2121   2.474       .  S
O2116      H2172   0.990       .  S
O2116      H2180   0.990       .  S
O2117      C2137   1.284       .  A
O2118      C2139   1.288       .  A
O2119      C2138   1.280       .  A
O2120      C2339   1.279       .  A
O2122     Zr2130   2.425       .  S
O2122      C2137   1.282       .  A
O2123     Zr2130   2.378       .  S
O2124     Zr2130   2.374       .  S
O2124      H2159   0.966       .  S
O2125     Zr2315   2.416       .  S
O2125      H2162   0.965       .  S
Zr2127     O2152   2.435       .  S
Zr2127     O2146   2.446       .  S
Zr2127     O2154   2.480       .  S
Zr2127     O2333   2.412       .  S
Zr2127     O2136   2.393   1_655  S
Zr2128     O2140   2.437       .  S
Zr2128     O2141   2.411       .  S
Zr2128     O2323   2.391       .  S
Zr2128     O2134   2.387       .  S
Zr2128     O2135   2.388   1_655  S
Zr2129     O2153   2.441       .  S
Zr2129     O2133   2.392       .  S
Zr2130     O2157   2.433       .  S
Zr2130     O2132   2.438       .  S
O2131      H2168   0.990       .  S
O2132      H2163   0.989       .  S
O2132      H2177   0.990       .  S
O2134     Zr2330   2.390       .  S
O2134      H2160   0.966       .  S
O2136     Zr2329   2.388   1_455  S
O2140      H2176   0.990       .  S
O2141      C2143   1.280       .  A
O2142      C2143   1.294       .  A
O2144      H2173   0.990       .  S
Zr2145     O2149   2.441       .  S
Zr2145     O2150   2.425       .  S
Zr2145     O2326   2.394       .  S
O2147      H2164   0.990       .  S
O2147      H2179   0.990       .  S
O2148      H2165   0.990       .  S
O2149      H2169   0.990       .  S
O2149      H2178   0.990       .  S
O2150      C2151   1.282       .  A
O2152      H2171   0.990       .  S
O2152      H2175   0.991       .  S
O2153      H2167   0.990       .  S
O2153      H2174   0.990       .  S
O2154      C2158   1.289       .  A
O2155     Zr2329   2.389       .  S
O2155      C2158   1.279       .  A
H2170      O2357   0.990       .  S
C2181      C2182   1.402       .  A
C2181      C2186   1.393       .  A
C2181      H2188   1.081       .  S
C2182      C2183   1.397       .  A
C2183     Br2190   1.912       .  S
C2184      C2185   1.403       .  A
C2184      H2189   1.081       .  S
C2186     Br2187   1.910       .  S
C2191      C2196   1.393       .  A
C2191      H2198   1.082       .  S
C2192      C2203   1.499       .  S
C2192      C2393   1.409       .  A
C2193     Br2200   1.908       .  S
C2194      C2195   1.412       .  A
C2194      H2399   1.082       .  S
C2195      C2196   1.409       .  A
C2196     Br2197   1.909       .  S
C2201      C2202   1.525       .  S
C2201      C2207   1.527       .  S
C2201      C2339   1.507       .  S
C2202      C2203   1.362       .  D
C2204      C2206   1.536   1_554  S
C2204      H2210   1.103       .  S
C2205      C2206   1.363       .  D
C2205      H2211   1.087       .  S
C2206      C2261   1.471       .  S
C2207      C2208   1.379       .  D
C2207      H2212   1.086       .  S
C2208      C2248   1.478       .  S
C2213      C2219   1.530       .  S
C2213      C2217   1.528       .  S
C2213      C2358   1.512       .  S
C2214      C2215   1.363       .  D
C2214      H2221   1.087       .  S
C2215      C2247   1.467       .  S
C2216      C2220   1.548       .  S
C2216      C2218   1.547       .  S
C2216      H2222   1.103       .  S
C2217      C2218   1.363       .  D
C2217      H2223   1.087       .  S
C2218      C2395   1.500       .  S
C2219      C2220   1.380       .  D
C2219      H2224   1.086       .  S
C2220      C2253   1.481       .  S
Zr2225     O2226   2.437       .  S
Zr2225     O2227   2.451       .  S
Zr2225     O2228   2.465       .  S
Zr2225     O2231   2.460       .  S
Zr2225     O2233   2.389       .  S
Zr2225     O2234   2.389       .  S
Zr2225     O2235   2.405       .  S
Zr2225     O2236   2.405       .  S
O2226      H2282   0.990       .  S
O2226      H2290   0.990       .  S
O2227      C2247   1.288       .  A
O2228      C2249   1.290       .  A
O2229     Zr2239   2.406       .  S
O2229      C2248   1.280       .  A
O2230     Zr2238   2.405       .  S
O2230      C2249   1.282       .  A
O2231      C2248   1.291       .  A
O2232     Zr2240   2.412       .  S
O2232      C2247   1.280       .  A
O2233     Zr2238   2.383       .  S
O2233     Zr2240   2.377       .  S
O2234     Zr2239   2.381       .  S
O2234     Zr2240   2.372       .  S
O2234      H2269   0.966       .  S
O2235     Zr2238   2.380       .  S
O2235     Zr2255   2.385       .  S
O2235      H2272   0.965       .  S
O2236     Zr2239   2.380       .  S
O2236     Zr2255   2.392       .  S
Zr2237     O2262   2.437       .  S
Zr2237     O2256   2.456       .  S
Zr2237     O2264   2.468       .  S
Zr2237     O2252   2.469       .  S
Zr2237     O2243   2.406       .  S
Zr2237     O2244   2.410       .  S
Zr2237     O2245   2.386       .  S
Zr2237     O2246   2.390       .  S
Zr2238     O2257   2.435       .  S
Zr2238     O2250   2.435       .  S
Zr2238     O2251   2.407       .  S
Zr2238     O2244   2.386       .  S
Zr2238     O2245   2.381       .  S
Zr2239     O2241   2.436       .  S
Zr2239     O2263   2.440       .  S
Zr2239     O2265   2.403       .  S
Zr2239     O2243   2.378       .  S
Zr2239     O2246   2.379       .  S
Zr2240     O2266   2.435       .  S
Zr2240     O2267   2.437       .  S
Zr2240     O2242   2.438       .  S
Zr2240     O2243   2.390       .  S
Zr2240     O2244   2.388       .  S
O2241      H2278   0.990       .  S
O2242      H2273   0.991       .  S
O2242      H2287   0.990       .  S
O2244      H2270   0.965       .  S
O2245     Zr2255   2.376       .  S
O2246     Zr2255   2.378       .  S
O2246      H2271   0.966       .  S
C2249      C2303   1.509       .  S
O2250      H2286   0.990       .  S
O2251      C2253   1.280       .  A
O2252      C2253   1.292       .  A
O2254     Zr2255   2.441       .  S
O2254      H2283   0.990       .  S
Zr2255     O2258   2.437       .  S
Zr2255     O2259   2.441       .  S
Zr2255     O2260   2.412       .  S
O2256      C2261   1.289       .  A
O2257      H2274   0.990       .  S
O2257      H2289   0.990       .  S
O2258      H2275   0.989       .  S
O2259      H2279   0.990       .  S
O2259      H2288   0.990       .  S
O2260      C2261   1.280       .  A
O2262      H2281   0.990       .  S
O2262      H2285   0.990       .  S
O2263      H2277   0.990       .  S
O2263      H2284   0.990       .  S
O2264      C2268   1.291       .  A
O2265      C2268   1.282       .  A
O2266      H2276   0.990       .  S
O2267      H2280   0.990       .  S
C2268      C2291   1.512       .  S
C2291      C2292   1.542       .  S
C2291      C2297   1.537       .  S
C2291      C2295   1.530       .  S
C2292      C2293   1.365       .  D
C2292      H2299   1.087       .  S
C2293      C2294   1.540       .  S
C2293      C2337   1.473       .  S
C2294      C2298   1.547       .  S
C2294      C2296   1.531       .  S
C2294      H2300   1.111       .  S
C2295      C2296   1.351       .  D
C2295      H2301   1.088       .  S
C2296      C2382   1.461       .  S
C2297      C2298   1.381       .  D
C2297      H2302   1.086       .  S
C2298      C2343   1.489       .  S
C2303      C2304   1.529       .  S
C2303      C2309   1.535       .  S
C2303      C2307   1.541       .  S
C2304      C2305   1.350       .  D
C2304      H2311   1.088       .  S
C2305      C2306   1.531       .  S
C2305      C2385   1.461       .  S
C2306      C2310   1.549       .  S
C2306      C2308   1.540       .  S
C2307      C2308   1.366       .  D
C2307      H2313   1.087       .  S
C2308      C2351   1.473       .  S
C2309      C2310   1.380       .  D
C2309      H2314   1.086       .  S
C2310      C2338   1.489       .  S
Zr2315     O2316   2.435       .  S
Zr2315     O2318   2.475       .  S
Zr2315     O2321   2.474       .  S
O2316      H2372   0.990       .  S
O2316      H2380   0.991       .  S
O2317      C2337   1.283       .  A
O2318      C2339   1.287       .  A
O2319      C2338   1.281       .  A
O2322     Zr2330   2.424       .  S
O2322      C2337   1.282       .  A
O2323     Zr2330   2.377       .  S
O2324     Zr2330   2.373       .  S
O2324      H2359   0.966       .  S
O2325      H2362   0.965       .  S
Zr2327     O2352   2.434       .  S
Zr2327     O2346   2.443       .  S
Zr2327     O2354   2.479       .  S
Zr2327     O2336   2.393   1_655  S
Zr2328     O2340   2.436       .  S
Zr2328     O2341   2.411       .  S
Zr2328     O2334   2.387       .  S
Zr2328     O2335   2.387   1_655  S
Zr2329     O2353   2.440       .  S
Zr2329     O2333   2.393       .  S
Zr2330     O2357   2.433       .  S
Zr2330     O2332   2.438       .  S
O2331      H2368   0.990       .  S
O2332      H2363   0.989       .  S
O2332      H2377   0.990       .  S
O2334      H2360   0.965       .  S
O2340      H2376   0.990       .  S
O2341      C2343   1.280       .  A
O2342      C2343   1.294       .  A
O2344      H2373   0.990       .  S
Zr2345     O2349   2.441       .  S
Zr2345     O2350   2.424       .  S
O2347      H2364   0.990       .  S
O2347      H2379   0.990       .  S
O2348      H2365   0.990       .  S
O2349      H2369   0.990       .  S
O2349      H2378   0.990       .  S
O2350      C2351   1.282       .  A
O2352      H2371   0.990       .  S
O2352      H2375   0.990       .  S
O2353      H2367   0.990       .  S
O2353      H2374   0.990       .  S
O2354      C2358   1.289       .  A
O2355      C2358   1.280   1_554  A
C2381      C2382   1.402       .  A
C2381      C2386   1.394       .  A
C2381      H2388   1.081       .  S
C2382      C2383   1.397       .  A
C2383     Br2390   1.911       .  S
C2384      C2385   1.402       .  A
C2384      H2389   1.081       .  S
C2386     Br2387   1.911       .  S
C2391      C2396   1.393       .  A
C2391      H2398   1.082       .  S
C2393     Br2400   1.909       .  S
C2394      C2395   1.412   1_554  A
C2395      C2396   1.409       .  A
C2396     Br2397   1.908       .  S
