geometry optimzed in LAMMPS
_audit_creation_date              2020-11-30 
_audit_creation_method            'lammps2cif' 
_symmetry_space_group_name_H-M    'P1' 
_symmetry_Int_Tables_number       1 
_symmetry_cell_setting            triclinic 
loop_ 
_symmetry_equiv_pos_as_xyz 
  x,y,z 
_cell_length_a                    67.0822306 
_cell_length_b                    67.22858353852415 
_cell_length_c                    67.22322775679284 
_cell_angle_alpha                 90.15376633164358 
_cell_angle_beta                  90.04358194667391 
_cell_angle_gamma                 90.18893635918924 
loop_ 
_atom_site_label 
_atom_site_type_symbol 
_atom_site_fract_x 
_atom_site_fract_y 
_atom_site_fract_z 
_atom_site_charge 
N1          N  0.62621692  0.12870288  0.86922845    -0.26500
N2          N  0.62722142  0.11502359  0.85512086    -0.34400
C3          C  0.62538036  0.09696027  0.86355626     0.01800
C4          C  0.62349024  0.09938078  0.88402247     0.07900
C5          C  0.62419245  0.11977128  0.88694736    -0.05200
H6          H  0.62557861  0.08309808  0.85536159     0.08500
H7          H  0.62369339  0.12762792  0.90099664     0.09700
Cu8        Cu  0.63271879  0.12173837  0.82533033     0.44200
Cu9        Cu  0.62759464  0.15896345  0.86427138     0.42000
Cu10       Cu  0.63585822  0.17467589  0.81407632     0.43900
N11         N  0.63905765  0.13310705  0.79716703    -0.33900
N12         N  0.63936837  0.15232592  0.79307571    -0.28100
C13         C  0.64328357  0.15478642  0.77363462    -0.04200
C14         C  0.64595808  0.13625892  0.76494574     0.08000
C15         C  0.64318179  0.12286781  0.78042649     0.01800
H16         H  0.64411642  0.16910424  0.76638404     0.09400
H17         H  0.64430598  0.10684637  0.77967413     0.08500
N18         N  0.63394688  0.19425345  0.83786087    -0.35300
N19         N  0.63053845  0.18844077  0.85629923    -0.27500
C20         C  0.63104340  0.20434864  0.86843507    -0.02800
C21         C  0.63522150  0.22101272  0.85711153     0.05900
C22         C  0.63691227  0.21403399  0.83777838     0.03900
H23         H  0.62912664  0.20370316  0.88439626     0.09100
H24         H  0.64081860  0.22258709  0.82473081     0.07900
N25         N  0.93995650  0.12962744  0.57643380    -0.26500
N26         N  0.92610598  0.11624041  0.57215600    -0.34400
C27         C  0.93480526  0.09834525  0.57002749     0.01800
C28         C  0.95511213  0.10061179  0.57304878     0.07900
C29         C  0.95782791  0.12063757  0.57705569    -0.05200
H30         H  0.92694044  0.08470274  0.56656272     0.08500
H31         H  0.97174293  0.12808212  0.58043446     0.09700
Cu32       Cu  0.89598330  0.12293675  0.56986312     0.44200
Cu33       Cu  0.93400739  0.15948307  0.58156859     0.42000
Cu34       Cu  0.88290929  0.17516544  0.57551447     0.43900
N35         N  0.86686688  0.13335474  0.57021210    -0.33900
N36         N  0.86208746  0.15233306  0.57218523    -0.28100
C37         C  0.84212947  0.15383614  0.57354052    -0.04200
C38         C  0.83394393  0.13492256  0.57244227     0.08000
C39         C  0.85009072  0.12232282  0.57026338     0.01800
H40         H  0.83421518  0.16758097  0.57621807     0.09400
H41         H  0.84973343  0.10624772  0.56958494     0.08500
N42         N  0.90619919  0.19458826  0.58237314    -0.35300
N43         N  0.92475019  0.18869367  0.58524298    -0.27500
C44         C  0.93591602  0.20441349  0.59083243    -0.02800
C45         C  0.92389175  0.22115041  0.59139425     0.05900
C46         C  0.90513906  0.21428363  0.58584689     0.03900
H47         H  0.95154924  0.20359712  0.59461483     0.09100
H48         H  0.89162848  0.22292820  0.58465269     0.07900
N49         N  0.85335176  0.41662466  0.84872063    -0.26500
N50         N  0.85788788  0.41460450  0.86776989    -0.34400
C51         C  0.84104097  0.41127673  0.87811491     0.01800
C52         C  0.82513226  0.41111793  0.86498396     0.07900
C53         C  0.83351247  0.41464052  0.84649409    -0.05200
H54         H  0.84050555  0.40835949  0.89392332     0.08500
H55         H  0.82583411  0.41505046  0.83234810     0.09700
Cu56       Cu  0.88680467  0.41514231  0.87893517     0.44200
Cu57       Cu  0.87423405  0.41969920  0.82604359     0.42000
Cu58       Cu  0.92523464  0.41642812  0.84128643     0.43900
N59         N  0.91704335  0.41746713  0.88538376    -0.33900
N60         N  0.93089163  0.41840020  0.87145062    -0.28100
C61         C  0.94878727  0.42087567  0.88006274    -0.04200
C62         C  0.94625939  0.42128350  0.90049317     0.08000
C63         C  0.92587180  0.41906382  0.90332175     0.01800
H64         H  0.96263096  0.42243700  0.87196970     0.09400
H65         H  0.91802323  0.41859249  0.91736276     0.08500
N66         N  0.91654860  0.41602499  0.81179257    -0.35300
N67         N  0.89783889  0.41805905  0.80605153    -0.27500
C68         C  0.89704698  0.41691154  0.78607871    -0.02800
C69         C  0.91618722  0.41373109  0.77890030     0.05900
C70         C  0.92812976  0.41329221  0.79570994     0.03900
H71         H  0.88344751  0.41769886  0.77747989     0.09100
H72         H  0.94398018  0.41045897  0.79628597     0.07900
N73         N  0.63721600  0.39232523  0.89545428    -0.26500
N74         N  0.65092218  0.40633375  0.89337629    -0.34400
C75         C  0.64195701  0.42418969  0.89353099     0.01800
C76         C  0.62163290  0.42129757  0.89588445     0.07900
C77         C  0.61920257  0.40088079  0.89711247    -0.05200
H78         H  0.64964427  0.43824143  0.89173129     0.08500
H79         H  0.60535753  0.39280060  0.89887751     0.09700
Cu80       Cu  0.68117351  0.40058189  0.89022264     0.44200
Cu81       Cu  0.64336297  0.36222840  0.89437778     0.42000
Cu82       Cu  0.69550274  0.34887451  0.89139490     0.43900
N83         N  0.71051026  0.39096151  0.88823570    -0.33900
N84         N  0.71573596  0.37205545  0.88929030    -0.28100
C85         C  0.73556111  0.37061975  0.88682604    -0.04200
C86         C  0.74322731  0.38953332  0.88392021     0.08000
C87         C  0.72690311  0.40206411  0.88498023     0.01800
H88         H  0.74369610  0.35675942  0.88656898     0.09400
H89         H  0.72685024  0.41801366  0.88285959     0.08500
N90         N  0.67234026  0.32871968  0.88823024    -0.35300
N91         N  0.65329733  0.33360214  0.88921751    -0.27500
C92         C  0.64211516  0.31749286  0.88505120    -0.02800
C93         C  0.65474556  0.30172092  0.88123262     0.05900
C94         C  0.67379644  0.30937488  0.88339537     0.03900
H95         H  0.62599958  0.31735848  0.88455074     0.09100
H96         H  0.68769558  0.30160699  0.88105843     0.07900
N97         N  0.95289465  0.33478633  0.61081822    -0.26500
N98         N  0.94994163  0.33077328  0.62983077    -0.34400
C99         C  0.94509195  0.31144990  0.63176715     0.01800
C100        C  0.94489262  0.30276883  0.61306931     0.07900
C101        C  0.94996688  0.31803671  0.60014155    -0.05200
H102        H  0.94176434  0.30429207  0.64578135     0.08500
H103        H  0.95101172  0.31712650  0.58411040     0.09700
Cu104      Cu  0.95124745  0.35195343  0.65223753     0.44200
Cu105      Cu  0.95972939  0.36325130  0.60047196     0.42000
Cu106      Cu  0.95650560  0.40315629  0.63760396     0.43900
N107        N  0.94934002  0.37555393  0.67200576    -0.33900
N108        N  0.95068562  0.39442534  0.66671266    -0.28100
C109        C  0.94669823  0.40595029  0.68264775    -0.04200
C110        C  0.94262042  0.39369551  0.69872521     0.08000
C111        C  0.94462366  0.37453922  0.69139082     0.01800
H112        H  0.94596562  0.42201436  0.68233892     0.09400
H113        H  0.94207616  0.36082069  0.69937490     0.08500
N114        N  0.96237154  0.40773724  0.60755150    -0.35300
N115        N  0.96399438  0.39335366  0.59415832    -0.27500
C116        C  0.96734383  0.40156593  0.57619353    -0.02800
C117        C  0.96772258  0.42204003  0.57839383     0.05900
C118        C  0.96447091  0.42541218  0.59842945     0.03900
H119        H  0.96858911  0.39329563  0.56242645     0.09100
H120        H  0.96322796  0.43970075  0.60575659     0.07900
N121        N  0.71780529  0.11360890  0.58936690    -0.26500
N122        N  0.72300215  0.11635792  0.60814463    -0.34400
C123        C  0.74276731  0.11946340  0.60912677     0.01800
C124        C  0.75058135  0.11843541  0.59008468     0.07900
C125        C  0.73425193  0.11468570  0.57791742    -0.05200
H126        H  0.75082616  0.12254806  0.62273659     0.08500
H127        H  0.73427962  0.11294955  0.56191586     0.09700
Cu128      Cu  0.70321565  0.11605992  0.63181232     0.44200
Cu129      Cu  0.68832802  0.10986281  0.58035640     0.42000
Cu130      Cu  0.65121826  0.11140358  0.62023687     0.43900
N131        N  0.68102787  0.11647713  0.65324574    -0.33900
N132        N  0.66184325  0.11500774  0.64903133    -0.28100
C133        C  0.65127961  0.11713524  0.66591664    -0.04200
C134        C  0.66447440  0.12003807  0.68155814     0.08000
C135        C  0.68321381  0.11941402  0.67291488     0.01800
H136        H  0.63517118  0.11719015  0.66664935     0.09400
H137        H  0.69740889  0.12134773  0.68031636     0.08500
N138        N  0.64427885  0.10999661  0.59016519    -0.35300
N139        N  0.65763441  0.10941338  0.57570338    -0.27500
C140        C  0.64807768  0.10985036  0.55809435    -0.02800
C141        C  0.62774842  0.11081376  0.56163102     0.05900
C142        C  0.62593278  0.11082819  0.58213622     0.03900
H143        H  0.65541292  0.10993048  0.54377630     0.09100
H144        H  0.61229915  0.11208936  0.59062017     0.07900
N145        N  0.15765551  0.40371354  0.79909138    -0.26500
N146        N  0.13955095  0.40321578  0.80679301    -0.34400
C147        C  0.12622647  0.40019552  0.79217294     0.01800
C148        C  0.13642021  0.39847421  0.77437021     0.07900
C149        C  0.15635501  0.40070719  0.77936115    -0.05200
H150        H  0.11026887  0.39951287  0.79436031     0.08500
H151        H  0.16900624  0.40013982  0.76942084     0.09700
Cu152      Cu  0.13359910  0.40642425  0.83673194     0.44200
Cu153      Cu  0.18320743  0.40857058  0.81572685     0.42000
Cu154      Cu  0.17594229  0.41294556  0.86907186     0.43900
N155        N  0.13118897  0.41118945  0.86696444    -0.33900
N156        N  0.14665304  0.41406739  0.87881701    -0.28100
C157        C  0.14002530  0.41769581  0.89734393    -0.04200
C158        C  0.11938194  0.41698529  0.89712320     0.08000
C159        C  0.11432671  0.41272858  0.87760886     0.01800
H160        H  0.14952728  0.42085888  0.90997700     0.09400
H161        H  0.09949146  0.41098418  0.87154283     0.08500
N162        N  0.20364035  0.41084027  0.85557881    -0.35300
N163        N  0.20629978  0.41014296  0.83611634    -0.27500
C164        C  0.22586741  0.40837133  0.83226992    -0.02800
C165        C  0.23606941  0.40750500  0.85018663     0.05900
C166        C  0.22142684  0.40916814  0.86462914     0.03900
H167        H  0.23210250  0.40716607  0.81748679     0.09100
H168        H  0.22343696  0.40845302  0.88057927     0.07900
N169        N  0.14123656  0.13410180  0.56478348    -0.26500
N170        N  0.15688377  0.12217414  0.56477478    -0.34400
C171        C  0.15043144  0.10318381  0.56560723     0.01800
C172        C  0.12976070  0.10323818  0.56619595     0.07900
C173        C  0.12452455  0.12309612  0.56553309    -0.05200
H174        H  0.16007136  0.09033467  0.56623000     0.08500
H175        H  0.10961981  0.12915541  0.56589054     0.09700
Cu176      Cu  0.18625628  0.13240986  0.56445166     0.44200
Cu177      Cu  0.14253317  0.16486472  0.56534494     0.42000
Cu178      Cu  0.19102398  0.18629899  0.56467407     0.43900
N179        N  0.21344619  0.14749849  0.56518455    -0.33900
N180        N  0.21493200  0.16712121  0.56506925    -0.28100
C181        C  0.23410013  0.17239067  0.56748271    -0.04200
C182        C  0.24529913  0.15530446  0.56923074     0.08000
C183        C  0.23178019  0.13976306  0.56762873     0.01800
H184        H  0.23934280  0.18756143  0.56894271     0.09400
H185        H  0.23488944  0.12408181  0.56930142     0.08500
N186        N  0.16554467  0.20293895  0.56840902    -0.35300
N187        N  0.14748142  0.19508409  0.56868448    -0.27500
C188        C  0.13422920  0.20937504  0.57320417    -0.02800
C189        C  0.14456277  0.22701371  0.57599552     0.05900
C190        C  0.16436308  0.22239432  0.57279144     0.03900
H191        H  0.11843354  0.20691234  0.57529902     0.09100
H192        H  0.17704896  0.23225585  0.57433958     0.07900
N193        N  0.44228766  0.13468134  0.87223639    -0.26500
N194        N  0.43838945  0.11975924  0.85994661    -0.34400
C195        C  0.43928222  0.10257996  0.87010269     0.01800
C196        C  0.44400645  0.10686777  0.88970163     0.07900
C197        C  0.44592536  0.12735642  0.89044875    -0.05200
H198        H  0.43602146  0.08809976  0.86382298     0.08500
H199        H  0.44913347  0.13637045  0.90342239     0.09700
Cu200      Cu  0.43109914  0.12305807  0.83014309     0.44200
Cu201      Cu  0.44040778  0.16455277  0.86487407     0.42000
Cu202      Cu  0.42407181  0.17394043  0.81530265     0.43900
N203        N  0.42473583  0.13141213  0.80116156    -0.33900
N204        N  0.42197661  0.15016072  0.79603204    -0.28100
C205        C  0.41920489  0.15120201  0.77631878    -0.04200
C206        C  0.42042147  0.13221801  0.76854183     0.08000
C207        C  0.42382767  0.11995371  0.78471039     0.01800
H208        H  0.41707847  0.16487685  0.76815685     0.09400
H209        H  0.42621064  0.10405472  0.78444785     0.08500
N210        N  0.42867971  0.19620520  0.83591294    -0.35300
N211        N  0.43468141  0.19291520  0.85432531    -0.27500
C212        C  0.43550762  0.21036837  0.86415771    -0.02800
C213        C  0.42989313  0.22528407  0.85115188     0.05900
C214        C  0.42567494  0.21576446  0.83341424     0.03900
H215        H  0.43957992  0.21203955  0.87964611     0.09100
H216        H  0.42028612  0.22249737  0.81983922     0.07900
N217        N  0.41380807  0.34181183  0.86499970    -0.26500
N218        N  0.39494797  0.33619608  0.86417625    -0.34400
C219        C  0.39399627  0.31634308  0.86237142     0.01800
C220        C  0.41321019  0.30898742  0.86223306     0.07900
C221        C  0.42544850  0.32557180  0.86387230    -0.05200
H222        H  0.38029431  0.30788421  0.86126858     0.08500
H223        H  0.44155798  0.32580162  0.86448828     0.09700
Cu224      Cu  0.37135382  0.35562039  0.86597946     0.44200
Cu225      Cu  0.42211536  0.37136504  0.86825014     0.42000
Cu226      Cu  0.38175388  0.40794474  0.87287266     0.43900
N227        N  0.34961932  0.37716726  0.86634541    -0.33900
N228        N  0.35322218  0.39641759  0.86814113    -0.28100
C229        C  0.33588972  0.40628936  0.86624212    -0.04200
C230        C  0.32066177  0.39253146  0.86325608     0.08000
C231        C  0.33001613  0.37422781  0.86358731     0.01800
H232        H  0.33453851  0.42231426  0.86662291     0.09400
H233        H  0.32315028  0.35976082  0.86175989     0.08500
N234        N  0.41194790  0.41449425  0.87673486    -0.35300
N235        N  0.42636993  0.40133103  0.87433312    -0.27500
C236        C  0.44402255  0.41025239  0.87755257    -0.02800
C237        C  0.44072429  0.42996032  0.88252318     0.05900
C238        C  0.42015202  0.43211564  0.88181978     0.03900
H239        H  0.45826937  0.40284098  0.87642426     0.09100
H240        H  0.41172835  0.44543057  0.88499951     0.07900
N241        N  0.41323062  0.12172589  0.65137721    -0.26500
N242        N  0.39423222  0.12453040  0.65571145    -0.34400
C243        C  0.39184676  0.12350359  0.67551636     0.01800
C244        C  0.41021752  0.11989117  0.68410672     0.07900
C245        C  0.42342986  0.11873622  0.66832779    -0.05200
H246        H  0.37798905  0.12642711  0.68318415     0.08500
H247        H  0.43942276  0.11694966  0.66915778     0.09700
Cu248      Cu  0.37275527  0.13204426  0.63498091     0.44200
Cu249      Cu  0.42490592  0.12526075  0.62310234     0.42000
Cu250      Cu  0.39085401  0.14677696  0.58697304     0.43900
N251        N  0.35431647  0.14096717  0.61202482    -0.33900
N252        N  0.36095909  0.14684867  0.59450318    -0.28100
C253        C  0.34534274  0.15147133  0.58286050    -0.04200
C254        C  0.32800389  0.14825787  0.59357625     0.08000
C255        C  0.33430756  0.14159211  0.61200216     0.01800
H256        H  0.34654346  0.15662170  0.56767513     0.09400
H257        H  0.32502159  0.13719126  0.62439334     0.08500
N258        N  0.42069563  0.14133582  0.58152626    -0.35300
N259        N  0.43298154  0.13300219  0.59441276    -0.27500
C260        C  0.45067083  0.12993682  0.58553693    -0.02800
C261        C  0.44941017  0.13661018  0.56612312     0.05900
C262        C  0.43023196  0.14383545  0.56415183     0.03900
H263        H  0.46323292  0.12264981  0.59244823     0.09100
H264        H  0.42344578  0.14978368  0.55084169     0.07900
N265        N  0.10656370  0.33519000  0.60350119    -0.26500
N266        N  0.10485427  0.32857553  0.62188819    -0.34400
C267        C  0.10949860  0.30915732  0.62229114     0.01800
C268        C  0.11456434  0.30326754  0.60319730     0.07900
C269        C  0.11251037  0.32019963  0.59168007    -0.05200
H270        H  0.10959909  0.30013704  0.63559168     0.08500
H271        H  0.11564332  0.32166906  0.57596815     0.09700
Cu272      Cu  0.09869906  0.34701007  0.64564040     0.44200
Cu273      Cu  0.10139582  0.36449714  0.59583794     0.42000
Cu274      Cu  0.09031591  0.39961404  0.63561048     0.43900
N275        N  0.09813654  0.36886205  0.66721129    -0.33900
N276        N  0.09501919  0.38795847  0.66379539    -0.28100
C277        C  0.09812835  0.39817894  0.68076115    -0.04200
C278        C  0.10366608  0.38485468  0.69545173     0.08000
C279        C  0.10343068  0.36644193  0.68629454     0.01800
H280        H  0.09744470  0.41420106  0.68201739     0.09400
H281        H  0.10806523  0.35244036  0.69268680     0.08500
N282        N  0.09109796  0.40714741  0.60567526    -0.35300
N283        N  0.09543163  0.39432753  0.59137833    -0.27500
C284        C  0.09619862  0.40397005  0.57393279    -0.02800
C285        C  0.09216734  0.42384223  0.57731282     0.05900
C286        C  0.08897187  0.42533679  0.59763094     0.03900
H287        H  0.10010070  0.39711528  0.55989026     0.09100
H288        H  0.08584849  0.43871707  0.60601494     0.07900
N289        N  0.44383171  0.91483519  0.86916384    -0.26500
N290        N  0.44358169  0.90161941  0.88370316    -0.34400
C291        C  0.44335437  0.91128945  0.90127020     0.01800
C292        C  0.44368631  0.93162748  0.89775601     0.07900
C293        C  0.44396318  0.93324545  0.87716118    -0.05200
H294        H  0.44305890  0.90400355  0.91559785     0.08500
H295        H  0.44457358  0.94682693  0.86859733     0.09700
Cu296      Cu  0.44437158  0.87091383  0.87912882     0.44200
Cu297      Cu  0.44407805  0.90713981  0.83902631     0.42000
Cu298      Cu  0.45123989  0.85482508  0.82809654     0.43900
N299        N  0.44524626  0.84109197  0.87048983    -0.33900
N300        N  0.44799449  0.83530855  0.85187075    -0.28100
C301        C  0.44601719  0.81540641  0.85082817    -0.04200
C302        C  0.44179376  0.80823805  0.86966749     0.08000
C303        C  0.44152816  0.82495772  0.88177942     0.01800
H304        H  0.44665514  0.80686552  0.83718171     0.09400
H305        H  0.43780611  0.82545808  0.89742750     0.08500
N306        N  0.44787301  0.87644677  0.80625968    -0.35300
N307        N  0.44433696  0.89537722  0.81022528    -0.27500
C308        C  0.44019140  0.90484165  0.79308159    -0.02800
C309        C  0.44125270  0.89129642  0.77746606     0.05900
C310        C  0.44636130  0.87346718  0.78650179     0.03900
H311        H  0.43589080  0.92030970  0.79215779     0.09100
H312        H  0.44821496  0.85917515  0.77934804     0.07900
N313        N  0.21748752  0.88687592  0.57339386    -0.26500
N314        N  0.22144503  0.86800412  0.57700403    -0.34400
C315        C  0.24090564  0.86603038  0.58112995     0.01800
C316        C  0.24972775  0.88458507  0.58008719     0.07900
C317        C  0.23444522  0.89749641  0.57510700    -0.05200
H318        H  0.24793005  0.85223561  0.58543983     0.08500
H319        H  0.23544224  0.91347542  0.57351711     0.09700
Cu320      Cu  0.20003008  0.84612723  0.57796021     0.44200
Cu321      Cu  0.18869861  0.89697424  0.56850967     0.42000
Cu322      Cu  0.14854827  0.85959790  0.57124252     0.43900
N323        N  0.17689710  0.82610397  0.57940939    -0.33900
N324        N  0.15795833  0.83068597  0.57670529    -0.28100
C325        C  0.14683071  0.81420847  0.57941042    -0.04200
C326        C  0.15947830  0.79862006  0.58415113     0.08000
C327        C  0.17838512  0.80678276  0.58401932     0.01800
H328        H  0.13074737  0.81372697  0.57845533     0.09400
H329        H  0.19220439  0.79939069  0.58767408     0.08500
N330        N  0.14399638  0.89003303  0.56819911    -0.35300
N331        N  0.15847752  0.90341218  0.56714857    -0.27500
C332        C  0.15040408  0.92166628  0.56625157    -0.02800
C333        C  0.12987765  0.91974542  0.56680703     0.05900
C334        C  0.12634283  0.89948341  0.56799658     0.03900
H335        H  0.15888075  0.93536162  0.56560840     0.09100
H336        H  0.11200413  0.89218133  0.56921484     0.07900
N337        N  0.16116629  0.59963979  0.80879881    -0.26500
N338        N  0.17980065  0.60391651  0.80402084    -0.34400
C339        C  0.18076063  0.60751164  0.78438030     0.01800
C340        C  0.16181383  0.60542767  0.77644617     0.07900
C341        C  0.14980173  0.60030059  0.79235270    -0.05200
H342        H  0.19405356  0.61230464  0.77664077     0.08500
H343        H  0.13383208  0.59807465  0.79217305     0.09700
Cu344      Cu  0.20264529  0.60674197  0.82465476     0.44200
Cu345      Cu  0.15129568  0.59591545  0.83765243     0.42000
Cu346      Cu  0.18812178  0.60231094  0.87632094     0.43900
N347        N  0.22223279  0.61029691  0.84830079    -0.33900
N348        N  0.21694259  0.60858913  0.86716087    -0.28100
C349        C  0.23282684  0.61248082  0.87877234    -0.04200
C350        C  0.24889544  0.61688730  0.86664077     0.08000
C351        C  0.24162899  0.61531994  0.84741225     0.01800
H352        H  0.23256346  0.61258191  0.89486326     0.09400
H353        H  0.24978755  0.61785804  0.83377575     0.08500
N354        N  0.15798052  0.59833138  0.88178792    -0.35300
N355        N  0.14448513  0.59607052  0.86762141    -0.27500
C356        C  0.12633261  0.59459198  0.87596065    -0.02800
C357        C  0.12852855  0.59594801  0.89637554     0.05900
C358        C  0.14878717  0.59830053  0.89954342     0.03900
H359        H  0.11256837  0.59265741  0.86776455     0.09100
H360        H  0.15626600  0.60010593  0.91369355     0.07900
N361        N  0.36264808  0.63741018  0.89325490    -0.26500
N362        N  0.35744237  0.65620300  0.89567207    -0.34400
C363        C  0.33755638  0.65765949  0.89353791     0.01800
C364        C  0.32987650  0.63892521  0.88925611     0.07900
C365        C  0.34630143  0.62648985  0.88924899    -0.05200
H366        H  0.32938741  0.67147735  0.89440223     0.08500
H367        H  0.34649891  0.61076659  0.88582666     0.09700
Cu368      Cu  0.37791356  0.67937346  0.89875411     0.44200
Cu369      Cu  0.39177217  0.62744881  0.89458376     0.42000
Cu370      Cu  0.43007059  0.66521415  0.89680006     0.43900
N371        N  0.40129657  0.69967970  0.89614263    -0.33900
N372        N  0.42025368  0.69445607  0.89503740    -0.28100
C373        C  0.43141127  0.71076861  0.89161827    -0.04200
C374        C  0.41893105  0.72710994  0.89049237     0.08000
C375        C  0.39993357  0.71947649  0.89350372     0.01800
H376        H  0.44737492  0.71063221  0.88937053     0.09400
H377        H  0.38607007  0.72763056  0.89322158     0.08500
N378        N  0.43590158  0.63489519  0.89798632    -0.35300
N379        N  0.42183371  0.62111022  0.89708280    -0.27500
C380        C  0.43032280  0.60304404  0.89791068    -0.02800
C381        C  0.45075312  0.60553490  0.89940715     0.05900
C382        C  0.45375197  0.62594107  0.89942369     0.03900
H383        H  0.42223262  0.58911653  0.89715183     0.09100
H384        H  0.46786714  0.63370663  0.90033186     0.07900
N385        N  0.13299771  0.62813577  0.66419924    -0.26500
N386        N  0.13699190  0.64672916  0.66933607    -0.34400
C387        C  0.14150260  0.64737613  0.68880612     0.01800
C388        C  0.14036250  0.62826646  0.69621986     0.07900
C389        C  0.13495089  0.61642877  0.68025712    -0.05200
H390        H  0.14583526  0.66067196  0.69683127     0.08500
H391        H  0.13289439  0.60045981  0.68024153     0.09700
Cu392      Cu  0.13736875  0.67024313  0.64958771     0.44200
Cu393      Cu  0.12603328  0.61927841  0.63549188     0.42000
Cu394      Cu  0.12548357  0.65797807  0.59849530     0.43900
N395        N  0.13770569  0.69072555  0.62671307    -0.33900
N396        N  0.13342841  0.68617210  0.60804472    -0.28100
C397        C  0.13561878  0.70247309  0.59674305    -0.04200
C398        C  0.14147890  0.71801983  0.60890582     0.08000
C399        C  0.14265410  0.71009506  0.62781846     0.01800
H400        H  0.13324753  0.70294249  0.58083073     0.09400
H401        H  0.14711456  0.71773013  0.64129678     0.08500
N402        N  0.12016928  0.62833128  0.59207931    -0.35300
N403        N  0.12066682  0.61409909  0.60558152    -0.27500
C404        C  0.11800573  0.59644180  0.59652110    -0.02800
C405        C  0.11565997  0.59970969  0.57632407     0.05900
C406        C  0.11704672  0.62013945  0.57408117     0.03900
H407        H  0.11835713  0.58222673  0.60401710     0.09100
H408        H  0.11624444  0.62843283  0.56034172     0.07900
N409        N  0.35832907  0.90540725  0.62273366    -0.26500
N410        N  0.36340637  0.90807312  0.60393458    -0.34400
C411        C  0.34730076  0.90538371  0.59232889     0.01800
C412        C  0.33125823  0.90076869  0.60438087     0.07900
C413        C  0.33878987  0.90091199  0.62358183    -0.05200
H414        H  0.34726142  0.90680198  0.57631473     0.08500
H415        H  0.33069872  0.89783319  0.63715497     0.09700
Cu416      Cu  0.39196822  0.91493607  0.59477372     0.44200
Cu417      Cu  0.37840890  0.90767911  0.64620484     0.42000
Cu418      Cu  0.42998377  0.91793197  0.63310023     0.43900
N419        N  0.42165843  0.92054242  0.58889954    -0.33900
N420        N  0.43560894  0.92172422  0.60276175    -0.28100
C421        C  0.45336743  0.92440966  0.59383088    -0.04200
C422        C  0.45043644  0.92482096  0.57338917     0.08000
C423        C  0.43011919  0.92236275  0.57086670     0.01800
H424        H  0.46746069  0.92537134  0.60160810     0.09400
H425        H  0.42215921  0.92111395  0.55692160     0.08500
N426        N  0.42033105  0.91247506  0.66214949    -0.35300
N427        N  0.40150280  0.90892968  0.66682557    -0.27500
C428        C  0.40022501  0.90533766  0.68646905    -0.02800
C429        C  0.41915641  0.90655029  0.69465640     0.05900
C430        C  0.43151895  0.91116754  0.67876379     0.03900
H431        H  0.38653781  0.90175414  0.69417357     0.09100
H432        H  0.44754295  0.91288524  0.67915974     0.07900
N433        N  0.92349349  0.90857384  0.57081859    -0.26500
N434        N  0.93672258  0.89405159  0.57147777    -0.34400
C435        C  0.95512817  0.90205873  0.57036069     0.01800
C436        C  0.95341421  0.92263049  0.56925220     0.07900
C437        C  0.93308210  0.92610318  0.56962479    -0.05200
H438        H  0.96876060  0.89351644  0.57063212     0.08500
H439        H  0.92573365  0.94039218  0.56961448     0.09700
Cu440      Cu  0.92911945  0.86413868  0.57551242     0.44200
Cu441      Cu  0.89292210  0.90457328  0.57231779     0.42000
Cu442      Cu  0.87608639  0.85430003  0.57928923     0.43900
N443        N  0.91701858  0.83576673  0.57983731    -0.33900
N444        N  0.89764546  0.83218217  0.58018782    -0.28100
C445        C  0.89460130  0.81252786  0.58246890    -0.04200
C446        C  0.91292886  0.80310249  0.58412436     0.08000
C447        C  0.92677660  0.81847629  0.58240873     0.01800
H448        H  0.88001193  0.80567496  0.58294431     0.09400
H449        H  0.94281550  0.81727726  0.58333286     0.08500
N450        N  0.85718764  0.87873203  0.57964632    -0.35300
N451        N  0.86325784  0.89716522  0.57650358    -0.27500
C452        C  0.84755403  0.90950341  0.57787209    -0.02800
C453        C  0.83074846  0.89831142  0.58233240     0.05900
C454        C  0.83750958  0.87886935  0.58336635     0.03900
H455        H  0.84840073  0.92545294  0.57600853     0.09100
H456        H  0.82882600  0.86578564  0.58700855     0.07900
N457        N  0.63372849  0.90530181  0.86579701    -0.26500
N458        N  0.62708471  0.89160984  0.87821934    -0.34400
C459        C  0.62175721  0.90047858  0.89538002     0.01800
C460        C  0.62543626  0.92074593  0.89375780     0.07900
C461        C  0.63309494  0.92315163  0.87477910    -0.05200
H462        H  0.61568305  0.89270261  0.90807085     0.08500
H463        H  0.63798985  0.93688146  0.86798096     0.09700
Cu464      Cu  0.62686938  0.86143508  0.87149082     0.44200
Cu465      Cu  0.64215208  0.89955904  0.83673823     0.42000
Cu466      Cu  0.63878213  0.84866417  0.82023719     0.43900
N467        N  0.63127820  0.83251190  0.86151525    -0.33900
N468        N  0.63551342  0.82787656  0.84285513    -0.28100
C469        C  0.63855125  0.80814952  0.84155869    -0.04200
C470        C  0.63622265  0.79998534  0.86028961     0.08000
C471        C  0.63162291  0.81586028  0.87258430     0.01800
H472        H  0.64288898  0.80041234  0.82811784     0.09400
H473        H  0.62918623  0.81542012  0.88848606     0.08500
N474        N  0.64345322  0.87247545  0.80111084    -0.35300
N475        N  0.64524879  0.89106959  0.80728884    -0.27500
C476        C  0.64852423  0.90291489  0.79152590    -0.02800
C477        C  0.64875163  0.89124431  0.77452098     0.05900
C478        C  0.64545263  0.87200977  0.78120727     0.03900
H479        H  0.65072263  0.91883634  0.79242013     0.09100
H480        H  0.64457574  0.85863683  0.77225773     0.07900
N481        N  0.86352066  0.61182599  0.86636100    -0.26500
N482        N  0.85956260  0.61602057  0.84757041    -0.34400
C483        C  0.83975377  0.61805509  0.84533030     0.01800
C484        C  0.83071159  0.61503814  0.86357721     0.07900
C485        C  0.84626879  0.61107342  0.87657611    -0.05200
H486        H  0.83251618  0.62220783  0.83156826     0.08500
H487        H  0.84517597  0.60838495  0.89239612     0.09700
Cu488      Cu  0.88127098  0.61996864  0.82597119     0.44200
Cu489      Cu  0.89241332  0.60882985  0.87728489     0.42000
Cu490      Cu  0.93263700  0.61524716  0.84103002     0.43900
N491        N  0.90504657  0.62270597  0.80644869    -0.33900
N492        N  0.92389908  0.62077356  0.81181824    -0.28100
C493        C  0.93553648  0.62305404  0.79565319    -0.04200
C494        C  0.92340556  0.62661298  0.77932525     0.08000
C495        C  0.90417405  0.62632210  0.78679750     0.01800
H496        H  0.95161157  0.62206492  0.79574297     0.09400
H497        H  0.89052324  0.62864124  0.77856744     0.08500
N498        N  0.93715501  0.61008568  0.87124896    -0.35300
N499        N  0.92262629  0.60767286  0.88433682    -0.27500
C500        C  0.93066995  0.60441050  0.90238714    -0.02800
C501        C  0.95124784  0.60477437  0.90063864     0.05900
C502        C  0.95478330  0.60845791  0.88067083     0.03900
H503        H  0.92214522  0.60170079  0.91576968     0.09100
H504        H  0.96914922  0.60985127  0.87349204     0.07900
N505        N  0.95460140  0.63729454  0.66508374    -0.26500
N506        N  0.94898760  0.65591034  0.66798415    -0.34400
C507        C  0.94422782  0.65854638  0.68722603     0.01800
C508        C  0.94684263  0.64073642  0.69707013     0.07900
C509        C  0.95340723  0.62753021  0.68256163    -0.05200
H510        H  0.93842472  0.67221606  0.69342046     0.08500
H511        H  0.95657511  0.61188566  0.68448919     0.09700
Cu512      Cu  0.94578387  0.67648939  0.64545590     0.44200
Cu513      Cu  0.96226319  0.62631383  0.63687570     0.42000
Cu514      Cu  0.95364049  0.66067765  0.59498034     0.43900
N515        N  0.94045856  0.69457770  0.62124285    -0.33900
N516        N  0.94294863  0.68894996  0.60256622    -0.28100
C517        C  0.93788384  0.70420815  0.59059355    -0.04200
C518        C  0.93199066  0.72020218  0.60237191     0.08000
C519        C  0.93389515  0.71342711  0.62170223     0.01800
H520        H  0.93850840  0.70371814  0.57452158     0.09400
H521        H  0.93102559  0.72172561  0.63520410     0.08500
N522        N  0.96415622  0.63150825  0.59186758    -0.35300
N523        N  0.96741046  0.61922841  0.60689252    -0.27500
C524        C  0.97295961  0.60140931  0.59953165    -0.02800
C525        C  0.97307189  0.60233901  0.57888080     0.05900
C526        C  0.96749921  0.62173508  0.57465063     0.03900
H527        H  0.97598882  0.58847783  0.60856564     0.09100
H528        H  0.96505943  0.62800126  0.56005066     0.07900
N529        N  0.65608023  0.61345367  0.89704634    -0.26500
N530        N  0.64180371  0.62691455  0.89590735    -0.34400
C531        C  0.62403185  0.61790524  0.89812100     0.01800
C532        C  0.62720316  0.59776897  0.90081065     0.07900
C533        C  0.64772969  0.59551403  0.90016217    -0.05200
H534        H  0.60982223  0.62533094  0.89689386     0.08500
H535        H  0.65595827  0.58174799  0.90110562     0.09700
Cu536      Cu  0.64668568  0.65664801  0.88975875     0.44200
Cu537      Cu  0.68605957  0.61958578  0.89197666     0.42000
Cu538      Cu  0.69746080  0.67046950  0.87858617     0.43900
N539        N  0.65529450  0.68535368  0.88281748    -0.33900
N540        N  0.67389316  0.69043340  0.87872608    -0.28100
C541        C  0.67460301  0.71005314  0.87495808    -0.04200
C542        C  0.65553487  0.71766639  0.87675683     0.08000
C543        C  0.64366100  0.70157523  0.88173739     0.01800
H544        H  0.68799535  0.71817297  0.87109593     0.09400
H545        H  0.62778882  0.70166245  0.88451330     0.08500
N546        N  0.71863350  0.64801906  0.87970091    -0.35300
N547        N  0.71451692  0.62937396  0.88445366    -0.27500
C548        C  0.73139157  0.61860480  0.88350397    -0.02800
C549        C  0.74685719  0.63112709  0.87802500     0.05900
C550        C  0.73822498  0.64964169  0.87575230     0.03900
H551        H  0.73236187  0.60287665  0.88669267     0.09100
H552        H  0.74563246  0.66327285  0.87141923     0.07900
N553        N  0.67993612  0.92303327  0.66510298    -0.26500
N554        N  0.66067232  0.92281676  0.66088012    -0.34400
C555        C  0.65039367  0.91915305  0.67771087     0.01800
C556        C  0.66387207  0.91685750  0.69318484     0.07900
C557        C  0.68241486  0.91956369  0.68461349    -0.05200
H558        H  0.63440767  0.91726872  0.67843926     0.08500
H559        H  0.69674839  0.91823459  0.69186865     0.09700
Cu560      Cu  0.64949698  0.92541506  0.63202768     0.44200
Cu561      Cu  0.70248965  0.92537274  0.64419969     0.42000
Cu562      Cu  0.68737344  0.92771278  0.59323077     0.43900
N563        N  0.64308886  0.92697864  0.60168664    -0.33900
N564        N  0.65695461  0.92805980  0.58773192    -0.28100
C565        C  0.64812014  0.92876905  0.56978655    -0.04200
C566        C  0.62772714  0.92803446  0.57251236     0.08000
C567        C  0.62502050  0.92683548  0.59290083     0.01800
H568        H  0.65597518  0.92942389  0.55576008     0.09400
H569        H  0.61098553  0.92586643  0.60073539     0.08500
N570        N  0.71694674  0.92573246  0.60196247    -0.35300
N571        N  0.72253727  0.92488739  0.62078565    -0.27500
C572        C  0.74238577  0.92222701  0.62161854    -0.02800
C573        C  0.74965528  0.92132900  0.60236366     0.05900
C574        C  0.73308592  0.92367481  0.59029156     0.03900
H575        H  0.75077138  0.92016237  0.63520833     0.09100
H576        H  0.73268946  0.92323575  0.57420596     0.07900
N577        N  0.14924096  0.59316644  0.10169587    -0.26500
N578        N  0.16356529  0.59483899  0.08832776    -0.34400
C579        C  0.15549508  0.59359435  0.07003456     0.01800
C580        C  0.13504633  0.59119215  0.07198824     0.07900
C581        C  0.13167378  0.59102055  0.09231055    -0.05200
H582        H  0.16388786  0.59461489  0.05633503     0.08500
H583        H  0.11743324  0.58990037  0.09975349     0.09700
Cu584      Cu  0.19312126  0.60015956  0.09581182     0.44200
Cu585      Cu  0.15407525  0.59466715  0.13205184     0.42000
Cu586      Cu  0.20461049  0.60457543  0.14852841     0.43900
N587        N  0.22118807  0.60693569  0.10697284    -0.33900
N588        N  0.22551041  0.60820755  0.12612530    -0.28100
C589        C  0.24484886  0.61319048  0.12818439    -0.04200
C590        C  0.25307610  0.61531070  0.10940318     0.08000
C591        C  0.23759644  0.61123441  0.09636110     0.01800
H592        H  0.25227749  0.61531762  0.14231904     0.09400
H593        H  0.23810174  0.61178247  0.08028105     0.08500
N594        N  0.18038578  0.60252951  0.16754769    -0.35300
N595        N  0.16200521  0.59870625  0.16152177    -0.27500
C596        C  0.14966330  0.59939474  0.17724514    -0.02800
C597        C  0.16077903  0.60402462  0.19398226     0.05900
C598        C  0.18020685  0.60586344  0.18727334     0.03900
H599        H  0.13370347  0.59719442  0.17643956     0.09100
H600        H  0.19314111  0.61002724  0.19596083     0.07900
N601        N  0.14862168  0.90418643  0.38901856    -0.26500
N602        N  0.13430994  0.89065578  0.39035085    -0.34400
C603        C  0.11684681  0.89991447  0.39367265     0.01800
C604        C  0.12026799  0.92024820  0.39457497     0.07900
C605        C  0.14062051  0.92233808  0.39160321    -0.05200
H606        H  0.10263989  0.89238751  0.39506771     0.08500
H607        H  0.14904243  0.93608140  0.39135383     0.09700
Cu608      Cu  0.13890099  0.86009662  0.38782993     0.44200
Cu609      Cu  0.17856087  0.89781602  0.38375204     0.42000
Cu610      Cu  0.19046924  0.84582724  0.38613861     0.43900
N611        N  0.14820587  0.83064848  0.38532710    -0.33900
N612        N  0.16721998  0.82558231  0.38500168    -0.28100
C613        C  0.16866005  0.80581365  0.38242114    -0.04200
C614        C  0.14963502  0.79792397  0.38106786     0.08000
C615        C  0.13700263  0.81412778  0.38298942     0.01800
H616        H  0.18256078  0.79785252  0.38094119     0.09400
H617        H  0.12089378  0.81396285  0.38239352     0.08500
N618        N  0.21170592  0.86788979  0.38263120    -0.35300
N619        N  0.20747683  0.88696887  0.38077420    -0.27500
C620        C  0.22449293  0.89704061  0.37713380    -0.02800
C621        C  0.24019937  0.88360651  0.37682431     0.05900
C622        C  0.23142329  0.86531292  0.38049945     0.03900
H623        H  0.22531162  0.91290811  0.37462857     0.09100
H624        H  0.23880331  0.85106055  0.38138440     0.07900
N625        N  0.44420973  0.92012311  0.10125701    -0.26500
N626        N  0.44734058  0.90647040  0.08742581    -0.34400
C627        C  0.44981863  0.91545130  0.06977439     0.01800
C628        C  0.44795371  0.93576259  0.07250491     0.07900
C629        C  0.44447158  0.93818507  0.09268412    -0.05200
H630        H  0.45229541  0.90768295  0.05588658     0.08500
H631        H  0.44169630  0.95201121  0.10045927     0.09700
Cu632      Cu  0.44614574  0.87614380  0.09236176     0.44200
Cu633      Cu  0.43898544  0.91349976  0.13098715     0.42000
Cu634      Cu  0.43550829  0.86066338  0.14217973     0.43900
N635        N  0.44120829  0.84677457  0.10003759    -0.33900
N636        N  0.43726787  0.84102965  0.11840038    -0.28100
C637        C  0.43349675  0.82136733  0.11836535    -0.04200
C638        C  0.43504730  0.81443936  0.09901053     0.08000
C639        C  0.44000608  0.83096443  0.08779894     0.01800
H640        H  0.42917018  0.81289695  0.13132212     0.09400
H641        H  0.44204529  0.83156704  0.07184694     0.08500
N642        N  0.43335743  0.88302993  0.16338036    -0.35300
N643        N  0.43462868  0.90225203  0.15943306    -0.27500
C644        C  0.43274182  0.91256596  0.17652518    -0.02800
C645        C  0.43013522  0.89917652  0.19196138     0.05900
C646        C  0.43055562  0.88061652  0.18301551     0.03900
H647        H  0.43338815  0.92860162  0.17764316     0.09100
H648        H  0.42883267  0.86635219  0.19024621     0.07900
N649        N  0.36390585  0.64251051  0.07685892    -0.26500
N650        N  0.35729347  0.66096190  0.07573693    -0.34400
C651        C  0.33777930  0.66112649  0.08033611     0.01800
C652        C  0.33188226  0.64184087  0.08470764     0.07900
C653        C  0.34887512  0.63046855  0.08233841    -0.05200
H654        H  0.32865639  0.67435865  0.08080493     0.08500
H655        H  0.35034073  0.61466055  0.08485339     0.09700
Cu656      Cu  0.37575552  0.68509986  0.07000519     0.44200
Cu657      Cu  0.39313045  0.63452267  0.07146862     0.42000
Cu658      Cu  0.42856115  0.67354781  0.06212507     0.43900
N659        N  0.39828765  0.70629723  0.06867232    -0.33900
N660        N  0.41732307  0.70210911  0.06575518    -0.28100
C661        C  0.42812710  0.71886076  0.06787762    -0.04200
C662        C  0.41535924  0.73431877  0.07256303     0.08000
C663        C  0.39654080  0.72580471  0.07282536     0.01800
H664        H  0.44421899  0.71952701  0.06705254     0.09400
H665        H  0.38274885  0.73299781  0.07694678     0.08500
N666        N  0.43612554  0.64358509  0.06223057    -0.35300
N667        N  0.42291984  0.62937949  0.06564991    -0.27500
C668        C  0.43218449  0.61171315  0.06571934    -0.02800
C669        C  0.45228926  0.61486015  0.06236136     0.05900
C670        C  0.45426205  0.63527862  0.06012703     0.03900
H671        H  0.42487467  0.59763385  0.06851412     0.09100
H672        H  0.46793678  0.64352359  0.05787100     0.07900
N673        N  0.39678284  0.90967525  0.30395526    -0.26500
N674        N  0.41561713  0.91219444  0.30912627    -0.34400
C675        C  0.42688411  0.91307106  0.29258342     0.01800
C676        C  0.41449425  0.91090616  0.27618354     0.07900
C677        C  0.39552414  0.90879193  0.28402738    -0.05200
H678        H  0.44289792  0.91489493  0.29253186     0.08500
H679        H  0.38185165  0.90622820  0.27585217     0.09700
Cu680      Cu  0.42471091  0.91336176  0.33858879     0.44200
Cu681      Cu  0.37386956  0.90662511  0.32433330     0.42000
Cu682      Cu  0.38612527  0.90750395  0.37687679     0.43900
N683        N  0.43006804  0.91438831  0.36896055    -0.33900
N684        N  0.41625018  0.91239647  0.38286183    -0.28100
C685        C  0.42494678  0.91421604  0.40084356    -0.04200
C686        C  0.44516797  0.91752367  0.39810109     0.08000
C687        C  0.44783613  0.91747724  0.37770783     0.01800
H688        H  0.41710372  0.91339106  0.41486550     0.09400
H689        H  0.46171510  0.91951608  0.36977268     0.08500
N690        N  0.35736118  0.90296085  0.36598306    -0.35300
N691        N  0.35311388  0.90274828  0.34677098    -0.27500
C692        C  0.33350787  0.89943676  0.34436723    -0.02800
C693        C  0.32487355  0.89742082  0.36291863     0.05900
C694        C  0.34044263  0.89977637  0.37632708     0.03900
H695        H  0.32604895  0.89861471  0.33010346     0.09100
H696        H  0.33956661  0.89906045  0.39236960     0.07900
N697        N  0.12958118  0.62357420  0.30651677    -0.26500
N698        N  0.13266889  0.64227974  0.30129040    -0.34400
C699        C  0.13660042  0.64290929  0.28168495     0.01800
C700        C  0.13606173  0.62367951  0.27427755     0.07900
C701        C  0.13153902  0.61181194  0.29043298    -0.05200
H702        H  0.14027846  0.65628564  0.27355450     0.08500
H703        H  0.13019475  0.59577686  0.29059234     0.09700
Cu704      Cu  0.13272178  0.66595020  0.32126474     0.44200
Cu705      Cu  0.12403715  0.61461586  0.33539727     0.42000
Cu706      Cu  0.12322949  0.65342586  0.37277992     0.43900
N707        N  0.13214061  0.68678842  0.34417493    -0.33900
N708        N  0.12819675  0.68227548  0.36289164    -0.28100
C709        C  0.12886520  0.69899011  0.37393430    -0.04200
C710        C  0.13365715  0.71483725  0.36164603     0.08000
C711        C  0.13563343  0.70646073  0.34287234     0.01800
H712        H  0.12617428  0.69951584  0.38979013     0.09400
H713        H  0.13965721  0.71405954  0.32928178     0.08500
N714        N  0.12013384  0.62334566  0.37914191    -0.35300
N715        N  0.12013719  0.60921121  0.36541780    -0.27500
C716        C  0.11805088  0.59141931  0.37429276    -0.02800
C717        C  0.11678489  0.59453995  0.39456263     0.05900
C718        C  0.11820778  0.61489785  0.39715885     0.03900
H719        H  0.11788347  0.57726664  0.36660501     0.09100
H720        H  0.11799690  0.62295096  0.41111198     0.07900
N721        N  0.62945051  0.91471147  0.09788744    -0.26500
N722        N  0.63242496  0.90125071  0.08379551    -0.34400
C723        C  0.62992714  0.90987150  0.06591748     0.01800
C724        C  0.62515573  0.92968382  0.06886572     0.07900
C725        C  0.62492979  0.93216978  0.08931482    -0.05200
H726        H  0.63189297  0.90236767  0.05179619     0.08500
H727        H  0.62196334  0.94576953  0.09739971     0.09700
Cu728      Cu  0.63978718  0.87171060  0.08913291     0.44200
Cu729      Cu  0.63221923  0.90956696  0.12829267     0.42000
Cu730      Cu  0.63620594  0.85834018  0.14073649     0.43900
N731        N  0.64424846  0.84297387  0.09953590    -0.33900
N732        N  0.64190062  0.83815294  0.11842383    -0.28100
C733        C  0.64558826  0.81870518  0.12076346    -0.04200
C734        C  0.65077621  0.81079504  0.10250118     0.08000
C735        C  0.64971560  0.82662378  0.08932716     0.01800
H736        H  0.64484677  0.81098559  0.13484497     0.09400
H737        H  0.65299497  0.82635223  0.07357723     0.08500
N738        N  0.63676549  0.88064002  0.16176156    -0.35300
N739        N  0.63570587  0.89974901  0.15742299    -0.27500
C740        C  0.63789928  0.91036737  0.17433162    -0.02800
C741        C  0.64044713  0.89717958  0.18998955     0.05900
C742        C  0.63968675  0.87850321  0.18138185     0.03900
H743        H  0.63782208  0.92643706  0.17514504     0.09100
H744        H  0.64167334  0.86437381  0.18876661     0.07900
N745        N  0.91475690  0.90123054  0.41299188    -0.26500
N746        N  0.92950593  0.88841367  0.41520616    -0.34400
C747        C  0.94688639  0.89835686  0.41604061     0.01800
C748        C  0.94308530  0.91846079  0.41410570     0.07900
C749        C  0.92250265  0.91976895  0.41234170    -0.05200
H750        H  0.96134767  0.89136186  0.41701154     0.08500
H751        H  0.91392531  0.93309381  0.40967180     0.09700
Cu752      Cu  0.92632739  0.85781881  0.41369615     0.44200
Cu753      Cu  0.88516160  0.89239676  0.40834205     0.42000
Cu754      Cu  0.87803633  0.83901806  0.40064414     0.43900
N755        N  0.92109298  0.82831198  0.40652100    -0.33900
N756        N  0.90331994  0.82141767  0.40151390    -0.28100
C757        C  0.90503879  0.80227705  0.39595043    -0.04200
C758        C  0.92488142  0.79685272  0.39750456     0.08000
C759        C  0.93461476  0.81374702  0.40431765     0.01800
H760        H  0.89287394  0.79320674  0.39044495     0.09400
H761        H  0.95042936  0.81550161  0.40696015     0.08500
N762        N  0.85545744  0.85981921  0.39801028    -0.35300
N763        N  0.85787811  0.87916840  0.40079732    -0.27500
C764        C  0.84055941  0.88837083  0.39664356    -0.02800
C765        C  0.82662056  0.87415501  0.39090436     0.05900
C766        C  0.83664805  0.85624048  0.39200344     0.03900
H767        H  0.83839606  0.90429238  0.39728827     0.09100
H768        H  0.83091669  0.84170847  0.38800008     0.07900
N769        N  0.87071046  0.61022693  0.11200660    -0.26500
N770        N  0.86565008  0.61123713  0.13098461    -0.34400
C771        C  0.84591994  0.61439386  0.13234139     0.01800
C772        C  0.83811624  0.61534980  0.11330689     0.07900
C773        C  0.85427964  0.61259519  0.10078536    -0.05200
H774        H  0.83793745  0.61641550  0.14617408     0.08500
H775        H  0.85416357  0.61259513  0.08469217     0.09700
Cu776      Cu  0.88582485  0.60942254  0.15424063     0.44200
Cu777      Cu  0.89983874  0.60652072  0.10223273     0.42000
Cu778      Cu  0.93757281  0.60307138  0.14059979     0.43900
N779        N  0.90906629  0.61024832  0.17452355    -0.33900
N780        N  0.92801946  0.60866474  0.16945437    -0.28100
C781        C  0.93938568  0.61157182  0.18569617    -0.04200
C782        C  0.92701054  0.61493878  0.20187673     0.08000
C783        C  0.90785829  0.61387141  0.19416449     0.01800
H784        H  0.95550485  0.61166752  0.18561924     0.09400
H785        H  0.89401813  0.61584286  0.20215632     0.08500
N786        N  0.94343697  0.59932817  0.11049346    -0.35300
N787        N  0.92982730  0.60150900  0.09646019    -0.27500
C788        C  0.93859036  0.59954417  0.07858375    -0.02800
C789        C  0.95869950  0.59563215  0.08139781     0.05900
C790        C  0.96113420  0.59551621  0.10190999     0.03900
H791        H  0.93089269  0.60116433  0.06454522     0.09100
H792        H  0.97476933  0.59294343  0.11007678     0.07900
N793        N  0.72390432  0.63535372  0.08675709    -0.26500
N794        N  0.72923824  0.65409659  0.08955809    -0.34400
C795        C  0.74866062  0.65484550  0.09430783     0.01800
C796        C  0.75608439  0.63567738  0.09432761     0.07900
C797        C  0.73993005  0.62366326  0.08951301    -0.05200
H798        H  0.75678465  0.66840413  0.09751877     0.08500
H799        H  0.73986566  0.60764937  0.08791334     0.09700
Cu800      Cu  0.71032362  0.67811777  0.08663865     0.44200
Cu801      Cu  0.69501030  0.62682809  0.07945341     0.42000
Cu802      Cu  0.65930800  0.66763518  0.07552471     0.43900
N803        N  0.68878371  0.69992944  0.08477550    -0.33900
N804        N  0.66980021  0.69599819  0.08135722    -0.28100
C805        C  0.65931903  0.71294947  0.08268963    -0.04200
C806        C  0.67239318  0.72840549  0.08695071     0.08000
C807        C  0.69098684  0.71953551  0.08803900     0.01800
H808        H  0.64330591  0.71384458  0.08115276     0.09400
H809        H  0.70508074  0.72671213  0.09125745     0.08500
N810        N  0.65219929  0.63798493  0.07126618    -0.35300
N811        N  0.66495973  0.62311483  0.07288233    -0.27500
C812        C  0.65502213  0.60583428  0.07062232    -0.02800
C813        C  0.63510130  0.61008696  0.06745729     0.05900
C814        C  0.63388862  0.63059729  0.06787669     0.03900
H815        H  0.66165585  0.59125679  0.07200711     0.09100
H816        H  0.62055675  0.63949341  0.06652064     0.07900
N817        N  0.96131580  0.63267723  0.31444001    -0.26500
N818        N  0.96076366  0.65171388  0.30958589    -0.34400
C819        C  0.95567832  0.65332489  0.29031905     0.01800
C820        C  0.95257646  0.63442142  0.28263315     0.07900
C821        C  0.95634707  0.62170430  0.29839967    -0.05200
H822        H  0.95394668  0.66730950  0.28259806     0.08500
H823        H  0.95501913  0.60566289  0.29839472     0.09700
Cu824      Cu  0.96443577  0.67492518  0.32966077     0.44200
Cu825      Cu  0.96799021  0.62245109  0.34284304     0.42000
Cu826      Cu  0.97382962  0.66073187  0.38030573     0.43900
N827        N  0.96385190  0.69484438  0.35326798    -0.33900
N828        N  0.96715673  0.68950752  0.37188409    -0.28100
C829        C  0.96348970  0.70503543  0.38395241    -0.04200
C830        C  0.95757136  0.72093108  0.37238084     0.08000
C831        C  0.95803413  0.71397772  0.35298663     0.01800
H832        H  0.96419954  0.70451852  0.40002321     0.09400
H833        H  0.95336664  0.72187923  0.33979457     0.08500
N834        N  0.97653045  0.63067522  0.38613089    -0.35300
N835        N  0.97418835  0.61658463  0.37256917    -0.27500
C836        C  0.97519147  0.59874016  0.38154034    -0.02800
C837        C  0.97822743  0.60177834  0.40171838     0.05900
C838        C  0.97909639  0.62221857  0.40403538     0.03900
H839        H  0.97298207  0.58462689  0.37407806     0.09100
H840        H  0.98076548  0.63038482  0.41782720     0.07900
N841        N  0.67647978  0.90608476  0.30174271    -0.26500
N842        N  0.65822136  0.91173650  0.30652227    -0.34400
C843        C  0.64723287  0.91316462  0.28981308     0.01800
C844        C  0.65915259  0.90825646  0.27372564     0.07900
C845        C  0.67758751  0.90387438  0.28186791    -0.05200
H846        H  0.63169337  0.91735641  0.28941541     0.08500
H847        H  0.69072899  0.89898808  0.27394651     0.09700
Cu848      Cu  0.64894279  0.91708784  0.33557220     0.44200
Cu849      Cu  0.69899030  0.90078230  0.32242410     0.42000
Cu850      Cu  0.68656695  0.91010684  0.37374774     0.43900
N851        N  0.64382965  0.92172349  0.36575403    -0.33900
N852        N  0.65770292  0.91952893  0.37955232    -0.28100
C853        C  0.64948805  0.92242233  0.39756108    -0.04200
C854        C  0.62939845  0.92642167  0.39506649     0.08000
C855        C  0.62637799  0.92596240  0.37467631     0.01800
H856        H  0.65734920  0.92072429  0.41149636     0.09400
H857        H  0.61230751  0.92748716  0.36697201     0.08500
N858        N  0.71403535  0.89920307  0.36470050    -0.35300
N859        N  0.71869829  0.89590851  0.34587512    -0.27500
C860        C  0.73771521  0.88962070  0.34491137    -0.02800
C861        C  0.74537241  0.88888202  0.36406053     0.05900
C862        C  0.72989839  0.89501627  0.37620827     0.03900
H863        H  0.74551245  0.88616419  0.33125158     0.09100
H864        H  0.73034569  0.89690323  0.39217724     0.07900
N865        N  0.85002577  0.41324259  0.12563530    -0.26500
N866        N  0.85556014  0.41394982  0.10678529    -0.34400
C867        C  0.83957370  0.41071649  0.09514774     0.01800
C868        C  0.82308966  0.40791377  0.10720140     0.07900
C869        C  0.83029263  0.40970142  0.12646937    -0.05200
H870        H  0.84004286  0.40989943  0.07907948     0.08500
H871        H  0.82189192  0.40817425  0.14010973     0.09700
Cu872      Cu  0.88466335  0.41833019  0.09754853     0.44200
Cu873      Cu  0.86988613  0.41541752  0.14927299     0.42000
Cu874      Cu  0.92234348  0.41958263  0.13572359     0.43900
N875        N  0.91477128  0.42144899  0.09158258    -0.33900
N876        N  0.92870285  0.42142709  0.10548297    -0.28100
C877        C  0.94667044  0.42291672  0.09670230    -0.04200
C878        C  0.94391698  0.42409415  0.07627079     0.08000
C879        C  0.92344392  0.42317600  0.07364529     0.01800
H880        H  0.96071972  0.42294033  0.10460866     0.09400
H881        H  0.91538906  0.42373614  0.05972159     0.08500
N882        N  0.91208914  0.41734525  0.16485360    -0.35300
N883        N  0.89306925  0.41573221  0.16978700    -0.27500
C884        C  0.89167763  0.41331695  0.18961319    -0.02800
C885        C  0.91072823  0.41343517  0.19758725     0.05900
C886        C  0.92326100  0.41611635  0.18142660     0.03900
H887        H  0.87786509  0.41088081  0.19753332     0.09100
H888        H  0.93937493  0.41660494  0.18162911     0.07900
N889        N  0.93111371  0.12980922  0.39894398    -0.26500
N890        N  0.91621060  0.11691537  0.39763127    -0.34400
C891        C  0.92328134  0.09839091  0.39989477     0.01800
C892        C  0.94365125  0.09947857  0.40270542     0.07900
C893        C  0.94813633  0.11964817  0.40210912    -0.05200
H894        H  0.91426184  0.08504132  0.39912464     0.08500
H895        H  0.96275647  0.12636301  0.40329236     0.09700
Cu896      Cu  0.88688932  0.12410305  0.39144971     0.44200
Cu897      Cu  0.92754230  0.16058743  0.39537587     0.42000
Cu898      Cu  0.87630560  0.17526196  0.38436608     0.43900
N899        N  0.85894285  0.13409119  0.38322331    -0.33900
N900        N  0.85505539  0.15311444  0.38042396    -0.28100
C901        C  0.83591155  0.15503573  0.37481838    -0.04200
C902        C  0.82727521  0.13628036  0.37412875     0.08000
C903        C  0.84237105  0.12335514  0.37955575     0.01800
H904        H  0.82881876  0.16904845  0.37141979     0.09400
H905        H  0.84135677  0.10736013  0.38089067     0.08500
N906        N  0.89981478  0.19516187  0.38743064    -0.35300
N907        N  0.91854532  0.19010278  0.39091755    -0.27500
C908        C  0.92992985  0.20670144  0.39050845    -0.02800
C909        C  0.91769461  0.22289493  0.38674593     0.05900
C910        C  0.89875998  0.21495715  0.38491640     0.03900
H911        H  0.94592092  0.20694533  0.39246775     0.09100
H912        H  0.88527370  0.22292307  0.38127571     0.07900
N913        N  0.61868677  0.13431863  0.08054338    -0.26500
N914        N  0.62247477  0.12018505  0.09364646    -0.34400
C915        C  0.62269918  0.10249592  0.08427100     0.01800
C916        C  0.61879320  0.10553959  0.06428349     0.07900
C917        C  0.61630138  0.12592794  0.06248359    -0.05200
H918        H  0.62575289  0.08844895  0.09146065     0.08500
H919        H  0.61308197  0.13408540  0.04902433     0.09700
Cu920      Cu  0.62704293  0.12526745  0.12376849     0.44200
Cu921      Cu  0.61777666  0.16446317  0.08768584     0.42000
Cu922      Cu  0.62184736  0.17583982  0.14041545     0.43900
N923        N  0.62948746  0.13372822  0.15337263    -0.33900
N924        N  0.62727546  0.15226837  0.15954865    -0.28100
C925        C  0.62986641  0.15293027  0.17939173    -0.04200
C926        C  0.63388522  0.13387030  0.18604175     0.08000
C927        C  0.63351268  0.12208853  0.16910998     0.01800
H928        H  0.62926726  0.16636061  0.18827586     0.09400
H929        H  0.63602665  0.10622403  0.16827915     0.08500
N930        N  0.62044252  0.19727907  0.11828621    -0.35300
N931        N  0.61945431  0.19327063  0.09903962    -0.27500
C932        C  0.62163244  0.21034258  0.08879354    -0.02800
C933        C  0.62415211  0.22582607  0.10224136     0.05900
C934        C  0.62310412  0.21694574  0.12077981     0.03900
H935        H  0.62258576  0.21124248  0.07275915     0.09100
H936        H  0.62530347  0.22410127  0.13505237     0.07900
N937        N  0.63690935  0.40111460  0.08022213    -0.26500
N938        N  0.65179998  0.41336920  0.07618500    -0.34400
C939        C  0.64455876  0.43178122  0.07342029     0.01800
C940        C  0.62407004  0.43128309  0.07605091     0.07900
C941        C  0.61979504  0.41152959  0.08040101    -0.05200
H942        H  0.65358118  0.44455690  0.06957237     0.08500
H943        H  0.60529095  0.40515194  0.08342226     0.09700
Cu944      Cu  0.68140496  0.40474641  0.07519432     0.44200
Cu945      Cu  0.64061248  0.37053717  0.08386218     0.42000
Cu946      Cu  0.69100261  0.35227316  0.07464929     0.43900
N947        N  0.70976307  0.39277758  0.07696129    -0.33900
N948        N  0.71339307  0.37349429  0.07620958    -0.28100
C949        C  0.73298473  0.37047392  0.07918360    -0.04200
C950        C  0.74212089  0.38876815  0.08218879     0.08000
C951        C  0.72689253  0.40254249  0.08060756     0.01800
H952        H  0.73988969  0.35598170  0.07988875     0.09400
H953        H  0.72801040  0.41843638  0.08290358     0.08500
N954        N  0.66652030  0.33403621  0.07937904    -0.35300
N955        N  0.64835832  0.34050228  0.08341770    -0.27500
C956        C  0.63653546  0.32473313  0.08726765    -0.02800
C957        C  0.64783063  0.30757158  0.08561365     0.05900
C958        C  0.66672471  0.31408804  0.08051266     0.03900
H959        H  0.62102102  0.32571709  0.09149482     0.09100
H960        H  0.67982438  0.30502113  0.07829384     0.07900
N961        N  0.71260887  0.11035948  0.35652460    -0.26500
N962        N  0.71661780  0.11332687  0.33751198    -0.34400
C963        C  0.73612792  0.11751131  0.33546642     0.01800
C964        C  0.74488703  0.11723232  0.35410054     0.07900
C965        C  0.72951824  0.11263168  0.36710647    -0.05200
H966        H  0.74329313  0.12105594  0.32149604     0.08500
H967        H  0.73050021  0.11138167  0.38312238     0.09700
Cu968      Cu  0.69519045  0.11260567  0.31533235     0.44200
Cu969      Cu  0.68391442  0.10481527  0.36701970     0.42000
Cu970      Cu  0.64483179  0.10019438  0.32901363     0.43900
N971        N  0.67185698  0.11106744  0.29519830    -0.33900
N972        N  0.65351114  0.10568631  0.29990811    -0.28100
C973        C  0.64204962  0.10636996  0.28346267    -0.04200
C974        C  0.65374205  0.11271712  0.26764427     0.08000
C975        C  0.67252765  0.11557577  0.27576955     0.01800
H976        H  0.62632359  0.10283759  0.28316591     0.09400
H977        H  0.68567129  0.12103436  0.26822081     0.08500
N978        N  0.63950788  0.10111975  0.35942223    -0.35300
N979        N  0.65353467  0.10282599  0.37318583    -0.27500
C980        C  0.64477678  0.10492620  0.39108284    -0.02800
C981        C  0.62429654  0.10466632  0.38844024     0.05900
C982        C  0.62152739  0.10215337  0.36819355     0.03900
H983        H  0.65272063  0.10738076  0.40488776     0.09100
H984        H  0.60747205  0.10178017  0.36032036     0.07900
N985        N  0.93864748  0.33876104  0.36959907    -0.26500
N986        N  0.93528031  0.33399490  0.35078782    -0.34400
C987        C  0.93203014  0.31427639  0.34950183     0.01800
C988        C  0.93346420  0.30611130  0.36836340     0.07900
C989        C  0.93768233  0.32215267  0.38067129    -0.05200
H990        H  0.92860144  0.30642387  0.33575226     0.08500
H991        H  0.94001531  0.32176953  0.39681941     0.09700
Cu992      Cu  0.93511220  0.35457043  0.32770351     0.44200
Cu993      Cu  0.94438083  0.36773530  0.37919216     0.42000
Cu994      Cu  0.94523637  0.40577877  0.34063245     0.43900
N995        N  0.93490067  0.37773050  0.30722852    -0.33900
N996        N  0.93848493  0.39650992  0.31193626    -0.28100
C997        C  0.93656924  0.40780535  0.29552917    -0.04200
C998        C  0.93153888  0.39552009  0.27970430     0.08000
C999        C  0.93064182  0.37657504  0.28771159     0.01800
H1000       H  0.93858479  0.42375545  0.29518166     0.09400
H1001       H  0.92675052  0.36296182  0.27996733     0.08500
N1002       N  0.95118412  0.41134977  0.37043293    -0.35300
N1003       N  0.95070955  0.39766229  0.38452532    -0.27500
C1004       C  0.95497254  0.40635817  0.40210224    -0.02800
C1005       C  0.95831043  0.42646657  0.39891836     0.05900
C1006       C  0.95580042  0.42903842  0.37864271     0.03900
H1007       H  0.95534449  0.39866269  0.41620969     0.09100
H1008       H  0.95716860  0.44278297  0.37043955     0.07900
N1009       N  0.17346676  0.42771496  0.17306289    -0.26500
N1010       N  0.15476461  0.42520178  0.16740188    -0.34400
C1011       C  0.14330520  0.42261771  0.18358918     0.01800
C1012       C  0.15534194  0.42358524  0.20031763     0.07900
C1013       C  0.17438574  0.42696799  0.19303476    -0.05200
H1014       H  0.12750856  0.41939928  0.18315942     0.08500
H1015       H  0.18802857  0.42808779  0.20155169     0.09700
Cu1016     Cu  0.14588950  0.42423528  0.13789920     0.44200
Cu1017     Cu  0.19705535  0.42942747  0.15321695     0.42000
Cu1018     Cu  0.18473767  0.42620189  0.10046692     0.43900
N1019       N  0.14027916  0.42455051  0.10759629    -0.33900
N1020       N  0.15431765  0.42536767  0.09382198    -0.28100
C1021       C  0.14555483  0.42567817  0.07577895    -0.04200
C1022       C  0.12502498  0.42504651  0.07834896     0.08000
C1023       C  0.12230242  0.42435965  0.09874116     0.01800
H1024       H  0.15353010  0.42631117  0.06181712     0.09400
H1025       H  0.10824604  0.42406717  0.10661579     0.08500
N1026       N  0.21381277  0.42602971  0.11161865    -0.35300
N1027       N  0.21815985  0.42726667  0.13078346    -0.27500
C1028       C  0.23800337  0.42569430  0.13315802    -0.02800
C1029       C  0.24666374  0.42333004  0.11462499     0.05900
C1030       C  0.23086364  0.42367859  0.10131264     0.03900
H1031       H  0.24553729  0.42587998  0.14738999     0.09100
H1032       H  0.23165658  0.42172632  0.08535205     0.07900
N1033       N  0.44303595  0.14600991  0.08519547    -0.26500
N1034       N  0.43980773  0.13288285  0.09947479    -0.34400
C1035       C  0.44005329  0.11447313  0.09158706     0.01800
C1036       C  0.44364855  0.11604497  0.07138308     0.07900
C1037       C  0.44547517  0.13625384  0.06785669    -0.05200
H1038       H  0.43780353  0.10093159  0.09995459     0.08500
H1039       H  0.44811645  0.14335327  0.05367799     0.09700
Cu1040     Cu  0.43530727  0.14029005  0.12913608     0.44200
Cu1041     Cu  0.44365866  0.17664261  0.08973888     0.42000
Cu1042     Cu  0.43864766  0.19250256  0.14094645     0.43900
N1043       N  0.43188226  0.15147183  0.15773489    -0.33900
N1044       N  0.43326659  0.17062454  0.16203493    -0.28100
C1045       C  0.42968195  0.17322619  0.18154220    -0.04200
C1046       C  0.42584142  0.15483290  0.18995890     0.08000
C1047       C  0.42741249  0.14136112  0.17442125     0.01800
H1048       H  0.42951267  0.18751064  0.18899419     0.09400
H1049       H  0.42493377  0.12548047  0.17507676     0.08500
N1050       N  0.44113892  0.21203506  0.11719512    -0.35300
N1051       N  0.44274145  0.20635283  0.09841776    -0.27500
C1052       C  0.44147340  0.22248782  0.08664026    -0.02800
C1053       C  0.43887008  0.23908479  0.09858917     0.05900
C1054       C  0.43883932  0.23187534  0.11786066     0.03900
H1055       H  0.44096881  0.22200365  0.07055973     0.09100
H1056       H  0.43590356  0.24027044  0.13129154     0.07900
N1057       N  0.12885047  0.13287300  0.39290331    -0.26500
N1058       N  0.14320128  0.11948214  0.39171516    -0.34400
C1059       C  0.13533320  0.10125877  0.39424939     0.01800
C1060       C  0.11507500  0.10326011  0.39728797     0.07900
C1061       C  0.11144323  0.12348428  0.39636847    -0.05200
H1062       H  0.14365132  0.08751941  0.39335497     0.08500
H1063       H  0.09709776  0.13074563  0.39727120     0.09700
Cu1064     Cu  0.17267280  0.12626156  0.38569408     0.44200
Cu1065     Cu  0.13341861  0.16303807  0.38781901     0.42000
Cu1066     Cu  0.18436392  0.17792174  0.37671903     0.43900
N1067       N  0.20120384  0.13651932  0.38008747    -0.33900
N1068       N  0.20555854  0.15544293  0.37695243    -0.28100
C1069       C  0.22531517  0.15720606  0.37402691    -0.04200
C1070       C  0.23376811  0.13848887  0.37537502     0.08000
C1071       C  0.21802962  0.12573195  0.37921419     0.01800
H1072       H  0.23295711  0.17106706  0.37100360     0.09400
H1073       H  0.21875757  0.10981636  0.38137357     0.08500
N1074       N  0.16034687  0.19738108  0.37675733    -0.35300
N1075       N  0.14177560  0.19194073  0.38059942    -0.27500
C1076       C  0.12983868  0.20791772  0.37900071    -0.02800
C1077       C  0.14147380  0.22419519  0.37403766     0.05900
C1078       C  0.16072639  0.21698047  0.37275580     0.03900
H1079       H  0.11391001  0.20773367  0.38141377     0.09100
H1080       H  0.17400980  0.22534091  0.36904668     0.07900
N1081       N  0.40634802  0.13891699  0.30542368    -0.26500
N1082       N  0.38772385  0.13508530  0.30023823    -0.34400
C1083       C  0.38600132  0.13650526  0.28036521     0.01800
C1084       C  0.40447064  0.14144953  0.27264206     0.07900
C1085       C  0.41702509  0.14285039  0.28895595    -0.05200
H1086       H  0.37235321  0.13402307  0.27215072     0.08500
H1087       H  0.43273997  0.14650764  0.28886433     0.09700
Cu1088     Cu  0.36559341  0.12844585  0.32055267     0.44200
Cu1089     Cu  0.41621711  0.13811224  0.33468908     0.42000
Cu1090     Cu  0.38009611  0.12408637  0.37256046     0.43900
N1091       N  0.34564627  0.12458086  0.34364423    -0.33900
N1092       N  0.35073145  0.12284311  0.36256456    -0.28100
C1093       C  0.33403739  0.12211962  0.37365360    -0.04200
C1094       C  0.31769520  0.12363893  0.36109306     0.08000
C1095       C  0.32569527  0.12512930  0.34220314     0.01800
H1096       H  0.33385123  0.12128513  0.38972426     0.09400
H1097       H  0.31762591  0.12746957  0.32847321     0.08500
N1098       N  0.41029860  0.12862396  0.37825303    -0.35300
N1099       N  0.42326803  0.13412279  0.36449284    -0.27500
C1100       C  0.44146034  0.13561614  0.37279029    -0.02800
C1101       C  0.43996158  0.13079056  0.39272562     0.05900
C1102       C  0.41996654  0.12643853  0.39567563     0.03900
H1103       H  0.45492498  0.13938991  0.36475806     0.09100
H1104       H  0.41299982  0.12182052  0.40943049     0.07900
N1105       N  0.10938642  0.33774256  0.36224544    -0.26500
N1106       N  0.11404347  0.33442820  0.34342110    -0.34400
C1107       C  0.11933206  0.31528132  0.34124273     0.01800
C1108       C  0.11796247  0.30602754  0.35955655     0.07900
C1109       C  0.11160321  0.32073706  0.37254630    -0.05200
H1110       H  0.12432853  0.30869447  0.32742187     0.08500
H1111       H  0.10899685  0.31925428  0.38835278     0.09700
Cu1112     Cu  0.11456467  0.35626982  0.32170693     0.44200
Cu1113     Cu  0.10145885  0.36558350  0.37313144     0.42000
Cu1114     Cu  0.10543725  0.40639814  0.33769429     0.43900
N1115       N  0.11799502  0.38078866  0.30338144    -0.33900
N1116       N  0.11511793  0.39928334  0.30936924    -0.28100
C1117       C  0.12040829  0.41179888  0.29469272    -0.04200
C1118       C  0.12687300  0.40061286  0.27861794     0.08000
C1119       C  0.12499638  0.38100853  0.28466922     0.01800
H1120       H  0.12018207  0.42783730  0.29589926     0.09400
H1121       H  0.12890641  0.36784425  0.27625779     0.08500
N1122       N  0.09828646  0.41000508  0.36740020    -0.35300
N1123       N  0.09680211  0.39528994  0.38035326    -0.27500
C1124       C  0.09423275  0.40303170  0.39865879    -0.02800
C1125       C  0.09408763  0.42352299  0.39705061     0.05900
C1126       C  0.09675241  0.42743161  0.37708624     0.03900
H1127       H  0.09392382  0.39445963  0.41224639     0.09100
H1128       H  0.09877899  0.44186308  0.37030348     0.07900
N1129       N  0.41724053  0.35249524  0.07466222    -0.26500
N1130       N  0.39820229  0.34768167  0.07334537    -0.34400
C1131       C  0.39647881  0.32775475  0.07396416     0.01800
C1132       C  0.41533137  0.31954387  0.07652812     0.07900
C1133       C  0.42806576  0.33586132  0.07679912    -0.05200
H1134       H  0.38237452  0.31997462  0.07347284     0.08500
H1135       H  0.44394582  0.33581363  0.07954013     0.09700
Cu1136     Cu  0.37549675  0.36857119  0.07569142     0.44200
Cu1137     Cu  0.42744139  0.38150961  0.07510139     0.42000
Cu1138     Cu  0.39102832  0.41971148  0.08553921     0.43900
N1139       N  0.35625637  0.39113255  0.08463730    -0.33900
N1140       N  0.36189315  0.40963880  0.08842819    -0.28100
C1141       C  0.34597159  0.42014557  0.09455673    -0.04200
C1142       C  0.32955125  0.40762367  0.09473772     0.08000
C1143       C  0.33663851  0.38936997  0.08838187     0.01800
H1144       H  0.34637907  0.43566411  0.09882423     0.09400
H1145       H  0.32815182  0.37575498  0.08670004     0.08500
N1146       N  0.42100966  0.42548076  0.08053420    -0.35300
N1147       N  0.43416587  0.41148134  0.07638136    -0.27500
C1148       C  0.45210317  0.41992861  0.07351984    -0.02800
C1149       C  0.45020082  0.44024181  0.07609167     0.05900
C1150       C  0.43028086  0.44325068  0.08052715     0.03900
H1151       H  0.46551544  0.41187156  0.06979163     0.09100
H1152       H  0.42307288  0.45729676  0.08360401     0.07900
O1153       O  0.51967633  0.50422852  0.05239049    -0.72200
O1154       O  0.56326726  0.54529794  0.04913240    -0.73100
O1155       O  0.56194985  0.50289121  0.05245059    -0.61800
O1156       O  0.52079395  0.54614672  0.04880929    -0.70200
O1157       O  0.52126660  0.54898453  0.08161632    -0.69700
O1158       O  0.56203411  0.50552628  0.08537792    -0.61000
O1159       O  0.56335767  0.54735389  0.08203628    -0.73500
O1160       O  0.51993739  0.50705171  0.08531786    -0.72300
Cu1161     Cu  0.54147351  0.52456133  0.04951534     1.04600
Cu1162     Cu  0.54166088  0.52735213  0.08469624     1.04300
C1163       C  0.51297124  0.49922233  0.06945449     0.94000
C1164       C  0.57014813  0.55288258  0.06521230     0.93200
C1165       C  0.56827711  0.49721684  0.06945390     0.85300
C1166       C  0.51431646  0.55429043  0.06472424     0.91600
O1167       O  0.12355961  0.53044343  0.50821574    -0.72200
O1168       O  0.11770894  0.48629823  0.46830796    -0.73100
O1169       O  0.12419868  0.52773879  0.46574500    -0.61800
O1170       O  0.11705710  0.48882468  0.51044646    -0.70200
O1171       O  0.08426647  0.49265069  0.50854007    -0.69700
O1172       O  0.09185907  0.53377441  0.46600290    -0.61000
O1173       O  0.08549367  0.49229850  0.46613864    -0.73500
O1174       O  0.09073878  0.53437173  0.50830489    -0.72300
Cu1175     Cu  0.12176869  0.50818238  0.48823732     1.04600
Cu1176     Cu  0.08696030  0.51344918  0.48725059     1.04300
C1177       C  0.10799752  0.53912551  0.51486108     0.94000
C1178       C  0.10078370  0.48258330  0.46038173     0.93200
C1179       C  0.10912807  0.53685555  0.45859558     0.85300
C1180       C  0.09950234  0.48440869  0.51636392     0.91600
O1181       O  0.55811002  0.13444379  0.45394416    -0.72200
O1182       O  0.51743027  0.14149065  0.49715615    -0.73100
O1183       O  0.55916532  0.13583614  0.49620848    -0.61800
O1184       O  0.51574140  0.14000126  0.45504860    -0.70200
O1185       O  0.51189276  0.10747894  0.45564341    -0.69700
O1186       O  0.55458309  0.10324526  0.49737202    -0.61000
O1187       O  0.51254015  0.10881417  0.49779255    -0.73500
O1188       O  0.55389497  0.10175645  0.45536616    -0.72300
Cu1189     Cu  0.53777050  0.13908047  0.47549678     1.04600
Cu1190     Cu  0.53306405  0.10420859  0.47656028     1.04300
C1191       C  0.56271626  0.11694189  0.44809151     0.94000
C1192       C  0.50857153  0.12624502  0.50423754     0.93200
C1193       C  0.56373849  0.11885479  0.50337623     0.85300
C1194       C  0.50663323  0.12441637  0.44888435     0.91600
O1195       O  0.95955516  0.53520470  0.46982026    -0.72200
O1196       O  0.95675025  0.49155551  0.51024828    -0.73100
O1197       O  0.95973412  0.53380527  0.51210675    -0.61800
O1198       O  0.95632976  0.49339241  0.46828684    -0.70200
O1199       O  0.98919844  0.49043612  0.46795148    -0.69700
O1200       O  0.99274030  0.53223444  0.51160714    -0.61000
O1201       O  0.98952213  0.48963270  0.51071145    -0.73500
O1202       O  0.99248261  0.53266991  0.46915969    -0.72300
Cu1203     Cu  0.95701082  0.51356966  0.49016148     1.04600
Cu1204     Cu  0.99216926  0.51113428  0.48987963     1.04300
C1205       C  0.97642600  0.54071399  0.46290572     0.94000
C1206       C  0.97258882  0.48353773  0.51702778     0.93200
C1207       C  0.97665976  0.53959886  0.51870519     0.85300
C1208       C  0.97206547  0.48564584  0.46097910     0.91600
O1209       O  0.51707343  0.94280234  0.50436987    -0.72200
O1210       O  0.55911642  0.94407903  0.46165767    -0.73100
O1211       O  0.51606898  0.94293010  0.46218993    -0.61800
O1212       O  0.55948114  0.94349071  0.50402933    -0.70200
O1213       O  0.56053654  0.91071448  0.50295023    -0.69700
O1214       O  0.51694876  0.91003319  0.46240349    -0.61000
O1215       O  0.55913032  0.91121996  0.46094346    -0.73500
O1216       O  0.51806868  0.90986616  0.50441407    -0.72300
Cu1217     Cu  0.53793028  0.94449946  0.48301016     1.04600
Cu1218     Cu  0.53869847  0.90936959  0.48263416     1.04300
C1219       C  0.51091737  0.92615157  0.51116462     0.94000
C1220       C  0.56606933  0.92779426  0.45470981     0.93200
C1221       C  0.50923513  0.92617151  0.45612586     0.85300
C1222       C  0.56697592  0.92711405  0.51013370     0.91600
O1223       O  0.55773947  0.53259222  0.88315625    -0.72200
O1224       O  0.51260148  0.49378155  0.87989285    -0.73100
O1225       O  0.51568239  0.53560836  0.88268680    -0.61800
O1226       O  0.55493880  0.49064745  0.88062615    -0.70200
O1227       O  0.55429177  0.48895875  0.91358651    -0.69700
O1228       O  0.51501432  0.53366042  0.91558957    -0.61000
O1229       O  0.51184189  0.49153509  0.91282136    -0.73500
O1230       O  0.55711306  0.53090447  0.91611120    -0.72300
Cu1231     Cu  0.53525711  0.51318276  0.88045184     1.04600
Cu1232     Cu  0.53453372  0.51114931  0.91568276     1.04300
C1233       C  0.56451301  0.53798145  0.90009255     0.94000
C1234       C  0.50491551  0.48669635  0.89574341     0.93200
C1235       C  0.50919303  0.54180624  0.89946415     0.85300
C1236       C  0.56106594  0.48294383  0.89687602     0.91600
O1237       O  0.00996253  0.02923866  0.42268565    -0.72200
O1238       O  0.05440497  0.98887338  0.42011586    -0.73100
O1239       O  0.05239549  0.03131498  0.41944151    -0.61800
O1240       O  0.01198291  0.98709504  0.42337594    -0.70200
O1241       O  0.00952182  0.98642304  0.39049446    -0.69700
O1242       O  0.04963725  0.03075198  0.38674693    -0.61000
O1243       O  0.05185502  0.98839036  0.38725224    -0.73500
O1244       O  0.00787375  0.02852500  0.38990200    -0.72300
Cu1245     Cu  0.03231775  0.00913637  0.42255839     1.04600
Cu1246     Cu  0.02967889  0.00845554  0.38749495     1.04300
C1247       C  0.00181531  0.03528947  0.40660059     0.94000
C1248       C  0.06009454  0.98219462  0.40321642     0.93200
C1249       C  0.05724980  0.03835106  0.40245657     0.85300
C1250       C  0.00412321  0.97998607  0.40754335     0.91600
O1251       O  0.02315317  0.03234934  0.58735824    -0.72200
O1252       O  0.06459238  0.98946178  0.58544165    -0.73100
O1253       O  0.06551751  0.03177760  0.58624329    -0.61800
O1254       O  0.02237377  0.99007462  0.58637326    -0.70200
O1255       O  0.02182557  0.99065849  0.55339128    -0.69700
O1256       O  0.06453491  0.03250255  0.55328952    -0.61000
O1257       O  0.06408838  0.99025904  0.55248995    -0.73500
O1258       O  0.02229624  0.03290825  0.55437725    -0.72300
Cu1259     Cu  0.04394947  0.01090446  0.58750739     1.04600
Cu1260     Cu  0.04316415  0.01160500  0.55225064     1.04300
C1261       C  0.01612782  0.03937736  0.57117151     0.94000
C1262       C  0.07087045  0.98300945  0.56869158     0.93200
C1263       C  0.07177110  0.03881803  0.56972107     0.85300
C1264       C  0.01535296  0.98371186  0.56984553     0.91600
O1265       O  0.42964542  0.04457118  0.96227575    -0.72200
O1266       O  0.43016745  0.00394945  0.00571087    -0.73100
O1267       O  0.43008003  0.04619173  0.00437619    -0.61800
O1268       O  0.42963622  0.00248898  0.96354135    -0.70200
O1269       O  0.46268559  0.00259914  0.96314714    -0.69700
O1270       O  0.46299421  0.04613318  0.00475694    -0.61000
O1271       O  0.46325903  0.00401260  0.00541311    -0.73500
O1272       O  0.46273989  0.04483012  0.96218762    -0.72300
Cu1273     Cu  0.42875337  0.02432009  0.98400892     1.04600
Cu1274     Cu  0.46408416  0.02444017  0.98386388     1.04300
C1275       C  0.44613532  0.05096937  0.95525787     0.94000
C1276       C  0.44678406  0.99745766  0.01230146     0.93200
C1277       C  0.44648290  0.05299748  0.01132647     0.85300
C1278       C  0.44605958  0.99564682  0.95681042     0.91600
O1279       O  0.05610353  0.41042516  0.96877850    -0.72200
O1280       O  0.01351899  0.41136763  0.01016567    -0.73100
O1281       O  0.01413601  0.41122126  0.96813704    -0.61800
O1282       O  0.05587419  0.41076545  0.01077315    -0.70200
O1283       O  0.05638366  0.44370635  0.01083129    -0.69700
O1284       O  0.01452138  0.44422816  0.96779996    -0.61000
O1285       O  0.01377316  0.44435117  0.01009517    -0.73500
O1286       O  0.05689808  0.44342642  0.96833149    -0.72300
Cu1287     Cu  0.03488983  0.40984618  0.98950388     1.04600
Cu1288     Cu  0.03544130  0.44512207  0.98930220     1.04300
C1289       C  0.06313962  0.42665116  0.96187744     0.94000
C1290       C  0.00666022  0.42790047  0.01651330     0.93200
C1291       C  0.00781926  0.42768671  0.96113229     0.85300
C1292       C  0.06285595  0.42714710  0.01754058     0.91600
O1293       O  0.63531387  0.03753934  0.99690211    -0.72200
O1294       O  0.63632366  0.99195127  0.95816386    -0.73100
O1295       O  0.63649246  0.03411384  0.95476679    -0.61800
O1296       O  0.63518625  0.99554765  0.00003201    -0.70200
O1297       O  0.60213044  0.99471266  0.99894538    -0.69700
O1298       O  0.60342667  0.03440759  0.95429540    -0.61000
O1299       O  0.60323430  0.99226123  0.95676059    -0.73500
O1300       O  0.60223206  0.03685174  0.99657291    -0.72300
Cu1301     Cu  0.63697625  0.01480468  0.97747492     1.04600
Cu1302     Cu  0.60159329  0.01457636  0.97658752     1.04300
C1303       C  0.61859164  0.04415497  0.00311065     0.94000
C1304       C  0.61993809  0.98495173  0.95138465     0.93200
C1305       C  0.62014203  0.04046377  0.94742837     0.85300
C1306       C  0.61856976  0.98897176  0.00660844     0.91600
O1307       O  0.06070821  0.57615460  0.96363794    -0.72200
O1308       O  0.02200507  0.57474071  0.00906321    -0.73100
O1309       O  0.01850214  0.57706346  0.96688625    -0.61800
O1310       O  0.06432370  0.57410082  0.00558395    -0.70200
O1311       O  0.06512435  0.60702639  0.00715490    -0.69700
O1312       O  0.01953058  0.60998961  0.96883536    -0.61000
O1313       O  0.02317682  0.60770240  0.01089817    -0.73500
O1314       O  0.06164942  0.60910683  0.96527578    -0.72300
Cu1315     Cu  0.04132306  0.57435043  0.98623213     1.04600
Cu1316     Cu  0.04236084  0.60958495  0.98809114     1.04300
C1317       C  0.06747222  0.59279892  0.95742916     0.94000
C1318       C  0.01659495  0.59102656  0.01723397     0.93200
C1319       C  0.01190254  0.59408974  0.96163664     0.85300
C1320       C  0.07201563  0.59015918  0.01242945     0.91600
C1321       C  0.49697885  0.48412413  0.07099314    -0.04500
C1322       C  0.47897008  0.48656057  0.06042528    -0.01700
C1323       C  0.46366561  0.47223700  0.06207997     0.03300
C1324       C  0.46621641  0.45546005  0.07446755    -0.04500
C1325       C  0.48421961  0.45315962  0.08517869    -0.01700
C1326       C  0.49955408  0.46741326  0.08339891     0.03300
C1327       C  0.47591326  0.50416938  0.04835802     0.38000
C1328       C  0.48683466  0.43643678  0.09852882     0.38000
C1329       C  0.51817953  0.46465579  0.09406005     0.36400
C1330       C  0.44552236  0.47456280  0.05056970     0.36400
N1331       N  0.53303625  0.46249889  0.10253930    -0.38400
N1332       N  0.43106253  0.47644193  0.04137225    -0.38400
N1333       N  0.48896877  0.42312188  0.10919022    -0.37900
N1334       N  0.47348838  0.51826316  0.03881802    -0.37900
C1335       C  0.09574195  0.43812145  0.41348240    -0.04500
C1336       C  0.11440673  0.44655268  0.41812486    -0.01700
C1337       C  0.11608587  0.46107765  0.43321287     0.03300
C1338       C  0.09899121  0.46712888  0.44422709    -0.04500
C1339       C  0.08018285  0.45850008  0.43928488    -0.01700
C1340       C  0.07868487  0.44407309  0.42403941     0.03300
C1341       C  0.13201724  0.44016405  0.40730531     0.38000
C1342       C  0.06210587  0.46439279  0.44953438     0.38000
C1343       C  0.05943142  0.43560359  0.41885081     0.36400
C1344       C  0.13546413  0.47018713  0.43654908     0.36400
N1345       N  0.04408118  0.42889669  0.41465878    -0.38400
N1346       N  0.15097556  0.47737340  0.43903497    -0.38400
N1347       N  0.04759287  0.46917897  0.45749343    -0.37900
N1348       N  0.14600789  0.43501857  0.39866841    -0.37900
C1349       C  0.48961416  0.12599034  0.43415646    -0.04500
C1350       C  0.48591098  0.14403344  0.42369094    -0.01700
C1351       C  0.46953783  0.14561103  0.41051514     0.03300
C1352       C  0.45664855  0.12930125  0.40731664    -0.04500
C1353       C  0.46014555  0.11135561  0.41751550    -0.01700
C1354       C  0.47647086  0.10959443  0.43070746     0.03300
C1355       C  0.49893566  0.16117461  0.42597726     0.38000
C1356       C  0.44717442  0.09434694  0.41404480     0.38000
C1357       C  0.47936321  0.09063745  0.44057592     0.36400
C1358       C  0.46557522  0.16438445  0.40064310     0.36400
N1359       N  0.48152427  0.07543060  0.44830885    -0.38400
N1360       N  0.46238067  0.17935872  0.39282610    -0.38400
N1361       N  0.43683297  0.08079163  0.41133913    -0.37900
N1362       N  0.50918311  0.17496169  0.42769115    -0.37900
C1363       C  0.10011590  0.08700199  0.39855708    -0.04500
C1364       C  0.08859756  0.08451538  0.41587571    -0.01700
C1365       C  0.07464343  0.06877312  0.41721106     0.03300
C1366       C  0.07176124  0.05543556  0.40095239    -0.04500
C1367       C  0.08280887  0.05877696  0.38318094    -0.01700
C1368       C  0.09719217  0.07411626  0.38225266     0.03300
C1369       C  0.09137795  0.09803515  0.43253870     0.38000
C1370       C  0.07933418  0.04693852  0.36543061     0.38000
C1371       C  0.10874360  0.07694563  0.36419862     0.36400
C1372       C  0.06288109  0.06699404  0.43522832     0.36400
N1373       N  0.11799876  0.07916107  0.34984725    -0.38400
N1374       N  0.05362918  0.06572067  0.44969573    -0.38400
N1375       N  0.07646663  0.03796286  0.35098736    -0.37900
N1376       N  0.09357892  0.10883939  0.44579822    -0.37900
C1377       C  0.29625353  0.12589401  0.36639587    -0.04500
C1378       C  0.28155949  0.11496015  0.35588654    -0.01700
C1379       C  0.26113369  0.11879505  0.35903513     0.03300
C1380       C  0.25517848  0.13333331  0.37302128    -0.04500
C1381       C  0.26980138  0.14338907  0.38439264    -0.01700
C1382       C  0.29023901  0.13990566  0.38093581     0.03300
C1383       C  0.28741414  0.09955686  0.34190945     0.38000
C1384       C  0.26382152  0.15710334  0.39998118     0.38000
C1385       C  0.30494987  0.15153092  0.39175865     0.36400
C1386       C  0.24632194  0.10828626  0.34724040     0.36400
N1387       N  0.31660680  0.16086894  0.40043184    -0.38400
N1388       N  0.23455666  0.09988223  0.33779563    -0.38400
N1389       N  0.25905164  0.16794874  0.41248706    -0.37900
N1390       N  0.29206224  0.08725290  0.33078324    -0.37900
C1391       C  0.13481267  0.24503399  0.37090487    -0.04500
C1392       C  0.14272526  0.26056782  0.38273148    -0.01700
C1393       C  0.13694634  0.28045817  0.37936062     0.03300
C1394       C  0.12313442  0.28498850  0.36412779    -0.04500
C1395       C  0.11477179  0.26934486  0.35271262    -0.01700
C1396       C  0.12065981  0.24948483  0.35601294     0.03300
C1397       C  0.15654526  0.25603504  0.39869525     0.38000
C1398       C  0.09965756  0.27359749  0.33787607     0.38000
C1399       C  0.11258345  0.23370985  0.34360231     0.36400
C1400       C  0.14572783  0.29625418  0.39125441     0.36400
N1401       N  0.10614326  0.22116971  0.33364681    -0.38400
N1402       N  0.15274390  0.30879240  0.40082035    -0.38400
N1403       N  0.08755115  0.27701405  0.32610656    -0.37900
N1404       N  0.16751766  0.25237441  0.41145477    -0.37900
C1405       C  0.44470570  0.09960419  0.05651772    -0.04500
C1406       C  0.42871837  0.08607346  0.05447684    -0.01700
C1407       C  0.42951139  0.07066618  0.04017281     0.03300
C1408       C  0.44616922  0.06885713  0.02719877    -0.04500
C1409       C  0.46234988  0.08237827  0.02959013    -0.01700
C1410       C  0.46165412  0.09745825  0.04429038     0.03300
C1411       C  0.41107653  0.08828791  0.06678825     0.38000
C1412       C  0.47971949  0.08125433  0.01679449     0.38000
C1413       C  0.47875281  0.11042487  0.04729552     0.36400
C1414       C  0.41320228  0.05643224  0.03939748     0.36400
N1415       N  0.49240850  0.12069403  0.04982207    -0.38400
N1416       N  0.40014837  0.04514021  0.03887387    -0.38400
N1417       N  0.49366569  0.08046068  0.00669882    -0.37900
N1418       N  0.39700368  0.09004864  0.07657829    -0.37900
C1419       C  0.43258835  0.25927108  0.09211249    -0.04500
C1420       C  0.44501102  0.27099077  0.07990837    -0.01700
C1421       C  0.43892537  0.29020787  0.07397483     0.03300
C1422       C  0.42073662  0.29836518  0.08105228    -0.04500
C1423       C  0.40829153  0.28637898  0.09324121    -0.01700
C1424       C  0.41395334  0.26681951  0.09818845     0.03300
C1425       C  0.46439121  0.26353360  0.07394830     0.38000
C1426       C  0.38995319  0.29411747  0.10160778     0.38000
C1427       C  0.40024848  0.25422264  0.10920548     0.36400
C1428       C  0.45129108  0.30125106  0.06013212     0.36400
N1429       N  0.38930881  0.24411169  0.11786977    -0.38400
N1430       N  0.46120532  0.30996899  0.04906317    -0.38400
N1431       N  0.37525538  0.29999097  0.10841901    -0.37900
N1432       N  0.47992058  0.25770365  0.06928635    -0.37900
C1433       C  0.40968495  0.14451966  0.25136498    -0.04500
C1434       C  0.39885942  0.15822675  0.23971719    -0.01700
C1435       C  0.40383775  0.16118303  0.21955478     0.03300
C1436       C  0.41993950  0.15075571  0.21090984    -0.04500
C1437       C  0.43048632  0.13671538  0.22243787    -0.01700
C1438       C  0.42538630  0.13362761  0.24257813     0.03300
C1439       C  0.38294320  0.16981316  0.24858894     0.38000
C1440       C  0.44684233  0.12563404  0.21374478     0.38000
C1441       C  0.43601022  0.11883947  0.25412190     0.36400
C1442       C  0.39183425  0.17444424  0.20750932     0.36400
N1443       N  0.44443879  0.10704255  0.26336218    -0.38400
N1444       N  0.38219291  0.18491902  0.19786387    -0.38400
N1445       N  0.45985330  0.11668853  0.20687242    -0.37900
N1446       N  0.37026946  0.17910448  0.25562926    -0.37900
C1447       C  0.07865757  0.42683091  0.03325405    -0.04500
C1448       C  0.07799960  0.41247610  0.04863660    -0.01700
C1449       C  0.09332186  0.41162872  0.06303727     0.03300
C1450       C  0.10917310  0.42556081  0.06273310    -0.04500
C1451       C  0.10956700  0.44024393  0.04771286    -0.01700
C1452       C  0.09464439  0.44065365  0.03286293     0.03300
C1453       C  0.06119342  0.39889736  0.05016131     0.38000
C1454       C  0.12488959  0.45553121  0.04793667     0.38000
C1455       C  0.09618617  0.45504538  0.01687778     0.36400
C1456       C  0.09292992  0.39599835  0.07788744     0.36400
N1457       N  0.09748797  0.46651252  0.00412896    -0.38400
N1458       N  0.09255368  0.38348637  0.08967566    -0.38400
N1459       N  0.13702172  0.46780989  0.04817983    -0.37900
N1460       N  0.04775868  0.38812730  0.05141933    -0.37900
C1461       C  0.14922682  0.41920841  0.22118175    -0.04500
C1462       C  0.13205360  0.42826440  0.22933288    -0.01700
C1463       C  0.12493318  0.42252887  0.24823932     0.03300
C1464       C  0.13511050  0.40789314  0.25936347    -0.04500
C1465       C  0.15298266  0.39977198  0.25174167    -0.01700
C1466       C  0.15985374  0.40517262  0.23267556     0.03300
C1467       C  0.12176544  0.44373096  0.21838723     0.38000
C1468       C  0.16464389  0.38606704  0.26364028     0.38000
C1469       C  0.17741795  0.39547892  0.22467386     0.36400
C1470       C  0.10667298  0.43122838  0.25581389     0.36400
N1471       N  0.19144339  0.38769483  0.21839849    -0.38400
N1472       N  0.09212024  0.43822883  0.26181185    -0.38400
N1473       N  0.17399121  0.37515412  0.27308677    -0.37900
N1474       N  0.11354829  0.45609110  0.20971172    -0.37900
C1475       C  0.26814803  0.41984962  0.11009700    -0.04500
C1476       C  0.27880798  0.40468789  0.12003404    -0.01700
C1477       C  0.29903794  0.40118822  0.11547481     0.03300
C1478       C  0.30873037  0.41247218  0.10063010    -0.04500
C1479       C  0.29824974  0.42789900  0.09099766    -0.01700
C1480       C  0.27807653  0.43159289  0.09573198     0.03300
C1481       C  0.26882600  0.39204372  0.13440196     0.38000
C1482       C  0.30802708  0.43965829  0.07577016     0.38000
C1483       C  0.26766709  0.44776934  0.08602106     0.36400
C1484       C  0.31004964  0.38627861  0.12649656     0.36400
N1485       N  0.25939027  0.46068825  0.07826817    -0.38400
N1486       N  0.31887494  0.37448096  0.13535884    -0.38400
N1487       N  0.31582866  0.44905219  0.06363477    -0.37900
N1488       N  0.26092315  0.38187413  0.14582873    -0.37900
C1489       C  0.96276867  0.44210365  0.41410442    -0.04500
C1490       C  0.95145285  0.45979217  0.41471610    -0.01700
C1491       C  0.95551130  0.47449753  0.42918754     0.03300
C1492       C  0.97001131  0.47117462  0.44415150    -0.04500
C1493       C  0.98160908  0.45363476  0.44330010    -0.01700
C1494       C  0.97827527  0.43940545  0.42809884     0.03300
C1495       C  0.93492570  0.46258124  0.40106139     0.38000
C1496       C  0.99649063  0.44971702  0.45842686     0.38000
C1497       C  0.99115186  0.42216818  0.42660156     0.36400
C1498       C  0.94509406  0.49337571  0.42819943     0.36400
N1499       N  0.00146328  0.40846025  0.42528444    -0.38400
N1500       N  0.93692099  0.50848174  0.42728416    -0.38400
N1501       N  0.00833478  0.44639037  0.47047838    -0.37900
N1502       N  0.92165462  0.46478306  0.39028516    -0.37900
C1503       C  0.60867260  0.10803144  0.40381015    -0.04500
C1504       C  0.59422094  0.12309834  0.40123888    -0.01700
C1505       C  0.57909082  0.12589688  0.41556171     0.03300
C1506       C  0.57863335  0.11410136  0.43293352    -0.04500
C1507       C  0.59346814  0.09945163  0.43578595    -0.01700
C1508       C  0.60816542  0.09619337  0.42113244     0.03300
C1509       C  0.59520832  0.13619966  0.38414612     0.38000
C1510       C  0.59408069  0.08811507  0.45412932     0.38000
C1511       C  0.62235349  0.08014086  0.42361481     0.36400
C1512       C  0.56361803  0.14051512  0.41203885     0.36400
N1513       N  0.63358102  0.06725421  0.42554612    -0.38400
N1514       N  0.55123083  0.15210763  0.40918538    -0.38400
N1515       N  0.59463288  0.07916653  0.46880396    -0.37900
N1516       N  0.59601405  0.14672839  0.37057487    -0.37900
C1517       C  0.58273184  0.48056363  0.07077736    -0.04500
C1518       C  0.57822421  0.46199507  0.06196887    -0.01700
C1519       C  0.59172522  0.44599110  0.06353469     0.03300
C1520       C  0.60980632  0.44827331  0.07424060    -0.04500
C1521       C  0.61425484  0.46696610  0.08305429    -0.01700
C1522       C  0.60085058  0.48302546  0.08119013     0.03300
C1523       C  0.55935405  0.45915492  0.05173564     0.38000
C1524       C  0.63235130  0.46969131  0.09459198     0.38000
C1525       C  0.60597161  0.50231085  0.08955705     0.36400
C1526       C  0.58713351  0.42738835  0.05352074     0.36400
N1527       N  0.61006678  0.51772147  0.09613176    -0.38400
N1528       N  0.58338723  0.41258307  0.04550243    -0.38400
N1529       N  0.64678651  0.47196539  0.10377504    -0.37900
N1530       N  0.54427792  0.45691412  0.04363764    -0.37900
C1531       C  0.61815958  0.06016855  0.01838847    -0.04500
C1532       C  0.60688482  0.05762815  0.03595258    -0.01700
C1533       C  0.60678692  0.07258127  0.05073472     0.03300
C1534       C  0.61816493  0.09016953  0.04822810    -0.04500
C1535       C  0.62933839  0.09273728  0.03055279    -0.01700
C1536       C  0.62927421  0.07783663  0.01569629     0.03300
C1537       C  0.59591902  0.03926007  0.03918866     0.38000
C1538       C  0.64152483  0.11039058  0.02785033     0.38000
C1539       C  0.64037799  0.08088472  0.99742672     0.36400
C1540       C  0.59455942  0.06994792  0.06833780     0.36400
N1541       N  0.64919935  0.08331991  0.98284038    -0.38400
N1542       N  0.58478029  0.06777936  0.08234760    -0.38400
N1543       N  0.65124865  0.12446835  0.02566774    -0.37900
N1544       N  0.58724041  0.02458089  0.04174672    -0.37900
C1545       C  0.63835953  0.12757961  0.20681416    -0.04500
C1546       C  0.65574116  0.11654335  0.21103507    -0.01700
C1547       C  0.66013657  0.11084022  0.23073784     0.03300
C1548       C  0.64767321  0.11683065  0.24664848    -0.04500
C1549       C  0.63008603  0.12762842  0.24235905    -0.01700
C1550       C  0.62537265  0.13275690  0.22253322     0.03300
C1551       C  0.66971094  0.11178851  0.19526011     0.38000
C1552       C  0.61706385  0.13418221  0.25828432     0.38000
C1553       C  0.60690657  0.14312088  0.21830651     0.36400
C1554       C  0.67734154  0.09834504  0.23447096     0.36400
N1555       N  0.59215858  0.15134483  0.21494252    -0.38400
N1556       N  0.69104139  0.08835097  0.23741338    -0.38400
N1557       N  0.60656040  0.13944428  0.27088322    -0.37900
N1558       N  0.68095587  0.10806232  0.18275536    -0.37900
C1559       C  0.64157897  0.28672022  0.08991141    -0.04500
C1560       C  0.65273300  0.27501119  0.10332736    -0.01700
C1561       C  0.64722589  0.25510476  0.10705384     0.03300
C1562       C  0.63015924  0.24675106  0.09782157    -0.04500
C1563       C  0.61900744  0.25844531  0.08437604    -0.01700
C1564       C  0.62470616  0.27831967  0.08042607     0.03300
C1565       C  0.66964638  0.28354937  0.11383459     0.38000
C1566       C  0.60144406  0.25018603  0.07479222     0.38000
C1567       C  0.61349315  0.28993294  0.06613508     0.36400
C1568       C  0.65972083  0.24304014  0.11985260     0.36400
N1569       N  0.60457822  0.29920871  0.05472118    -0.38400
N1570       N  0.66973327  0.23344314  0.13002582    -0.38400
N1571       N  0.58744079  0.24365022  0.06708084    -0.37900
N1572       N  0.68312758  0.29030393  0.12225458    -0.37900
C1573       C  0.95772433  0.08244280  0.40443406    -0.04500
C1574       C  0.95781723  0.06726987  0.38985029    -0.01700
C1575       C  0.97143800  0.05136892  0.39116742     0.03300
C1576       C  0.98550888  0.05055727  0.40694489    -0.04500
C1577       C  0.98435325  0.06505377  0.42231315    -0.01700
C1578       C  0.97073064  0.08100905  0.42087789     0.03300
C1579       C  0.94427867  0.06823958  0.37301671     0.38000
C1580       C  0.99697629  0.06373012  0.43978396     0.38000
C1581       C  0.96978357  0.09576058  0.43664796     0.36400
C1582       C  0.97036003  0.03551690  0.37646914     0.36400
N1583       N  0.96902580  0.10749845  0.44924691    -0.38400
N1584       N  0.96943140  0.02288585  0.36476525    -0.38400
N1585       N  0.00673813  0.06262214  0.45393813    -0.37900
N1586       N  0.93348624  0.06891550  0.35959591    -0.37900
C1587       C  0.93057035  0.28478240  0.37404546    -0.04500
C1588       C  0.94029627  0.26946736  0.36331741    -0.01700
C1589       C  0.93658671  0.24926084  0.36784192     0.03300
C1590       C  0.92335060  0.24409599  0.38333768    -0.04500
C1591       C  0.91428531  0.25935468  0.39461335    -0.01700
C1592       C  0.91771959  0.27956065  0.38991460     0.03300
C1593       C  0.95444684  0.27441736  0.34777460     0.38000
C1594       C  0.90154165  0.25426100  0.41128869     0.38000
C1595       C  0.90724421  0.29488111  0.40093691     0.36400
C1596       C  0.94578893  0.23378207  0.35594014     0.36400
N1597       N  0.89884340  0.30705534  0.40975389    -0.38400
N1598       N  0.95308976  0.22143300  0.34641524    -0.38400
N1599       N  0.89145738  0.25022627  0.42465395    -0.37900
N1600       N  0.96576565  0.27831351  0.33538610    -0.37900
C1601       C  0.80620229  0.13123711  0.36903690    -0.04500
C1602       C  0.80181804  0.11640610  0.35468990    -0.01700
C1603       C  0.78182467  0.11192676  0.34971160     0.03300
C1604       C  0.76599393  0.12209765  0.35913374    -0.04500
C1605       C  0.77038534  0.13703471  0.37332329    -0.01700
C1606       C  0.79034178  0.14143354  0.37839445     0.03300
C1607       C  0.81784667  0.10596934  0.34466603     0.38000
C1608       C  0.75439928  0.14853588  0.38217239     0.38000
C1609       C  0.79445031  0.15603576  0.39381205     0.36400
C1610       C  0.77759103  0.09661318  0.33503477     0.36400
N1611       N  0.79771723  0.16763882  0.40614936    -0.38400
N1612       N  0.77424721  0.08445530  0.32326348    -0.38400
N1613       N  0.74168254  0.15780902  0.38915671    -0.37900
N1614       N  0.83058370  0.09755704  0.33668865    -0.37900
C1615       C  0.95958060  0.42566875  0.06054655    -0.04500
C1616       C  0.95877496  0.41338842  0.04340715    -0.01700
C1617       C  0.97382900  0.41460990  0.02879837     0.03300
C1618       C  0.99014730  0.42776830  0.03131436    -0.04500
C1619       C  0.99074768  0.44036233  0.04817156    -0.01700
C1620       C  0.97548530  0.43942950  0.06261542     0.03300
C1621       C  0.94282615  0.39894852  0.04092734     0.38000
C1622       C  0.00736828  0.45394949  0.05102481     0.38000
C1623       C  0.97595366  0.45311803  0.07933299     0.36400
C1624       C  0.97216567  0.40263945  0.01084183     0.36400
N1625       N  0.97635073  0.46407805  0.09263463    -0.38400
N1626       N  0.97081689  0.39316395  0.99649869    -0.38400
N1627       N  0.02061496  0.46479502  0.05329699    -0.37900
N1628       N  0.93013950  0.38742350  0.03880617    -0.37900
C1629       C  0.91655145  0.40947705  0.21863680    -0.04500
C1630       C  0.90764567  0.42016991  0.23444351    -0.01700
C1631       C  0.91287430  0.41602184  0.25438283     0.03300
C1632       C  0.92714100  0.40119601  0.25872538    -0.04500
C1633       C  0.93648081  0.39097343  0.24289556    -0.01700
C1634       C  0.93093033  0.39477276  0.22302273     0.03300
C1635       C  0.89313908  0.43557098  0.23026281     0.38000
C1636       C  0.95228036  0.37685827  0.24697563     0.38000
C1637       C  0.93928754  0.38266611  0.20720850     0.36400
C1638       C  0.90304917  0.42664825  0.27040841     0.36400
N1639       N  0.94584933  0.37289516  0.19463203    -0.38400
N1640       N  0.89521569  0.43517735  0.28315935    -0.38400
N1641       N  0.96498180  0.36570468  0.25017826    -0.37900
N1642       N  0.88151283  0.44782107  0.22699732    -0.37900
C1643       C  0.80243218  0.40281260  0.10070702    -0.04500
C1644       C  0.79205516  0.38674817  0.10953278    -0.01700
C1645       C  0.77242730  0.38206288  0.10349397     0.03300
C1646       C  0.76318353  0.39293331  0.08803247    -0.04500
C1647       C  0.77386839  0.40848422  0.07869787    -0.01700
C1648       C  0.79315538  0.41371154  0.08531275     0.03300
C1649       C  0.80170441  0.37456395  0.12448613     0.38000
C1650       C  0.76531126  0.41876583  0.06177457     0.38000
C1651       C  0.80308290  0.43084853  0.07668289     0.36400
C1652       C  0.76165141  0.36639877  0.11374688     0.36400
N1653       N  0.81089876  0.44458229  0.06982194    -0.38400
N1654       N  0.75316727  0.35387762  0.12199507    -0.38400
N1655       N  0.75855141  0.42687685  0.04819850    -0.37900
N1656       N  0.80937027  0.36479445  0.13638169    -0.37900
C1657       C  0.61376128  0.92735827  0.41079953    -0.04500
C1658       C  0.61211639  0.91196383  0.42497055    -0.01700
C1659       C  0.59677142  0.91225478  0.43931329     0.03300
C1660       C  0.58262289  0.92793304  0.43966729    -0.04500
C1661       C  0.58464801  0.94362732  0.42569807    -0.01700
C1662       C  0.60009373  0.94327932  0.41137050     0.03300
C1663       C  0.62588147  0.89533877  0.42452171     0.38000
C1664       C  0.57074300  0.96010300  0.42564534     0.38000
C1665       C  0.60219487  0.95962620  0.39745193     0.36400
C1666       C  0.59602715  0.89642438  0.45396018     0.36400
N1667       N  0.60387736  0.97269295  0.38639714    -0.38400
N1668       N  0.59547667  0.88372503  0.46554113    -0.38400
N1669       N  0.55984304  0.97340820  0.42553537    -0.37900
N1670       N  0.63687182  0.88210612  0.42423863    -0.37900
C1671       C  0.97822642  0.58645196  0.41767634    -0.04500
C1672       C  0.99088256  0.56974555  0.41628129    -0.01700
C1673       C  0.99017088  0.55470302  0.43088967     0.03300
C1674       C  0.97729589  0.55656641  0.44747108    -0.04500
C1675       C  0.96499234  0.57355073  0.44909513    -0.01700
C1676       C  0.96524526  0.58824847  0.43415741     0.03300
C1677       C  0.00509430  0.56825492  0.40008074     0.38000
C1678       C  0.95226737  0.57620245  0.46635993     0.38000
C1679       C  0.95155451  0.60487260  0.43551890     0.36400
C1680       C  0.00210996  0.53691516  0.42830123     0.36400
N1681       N  0.94059638  0.61808878  0.43665277    -0.38400
N1682       N  0.01154021  0.52268652  0.42613997    -0.38400
N1683       N  0.94213009  0.57831822  0.48012352    -0.37900
N1684       N  0.01651254  0.56711507  0.38723318    -0.37900
C1685       C  0.61824489  0.59576590  0.06633534    -0.04500
C1686       C  0.60203902  0.59756105  0.07961457    -0.01700
C1687       C  0.58590333  0.58416337  0.07850484     0.03300
C1688       C  0.58619260  0.56821047  0.06469600    -0.04500
C1689       C  0.60238805  0.56648947  0.05131823    -0.01700
C1690       C  0.61828860  0.58028299  0.05209160     0.03300
C1691       C  0.60235005  0.61258183  0.09518081     0.38000
C1692       C  0.60311759  0.55020405  0.03712847     0.38000
C1693       C  0.63463716  0.57861025  0.03807231     0.36400
C1694       C  0.56878614  0.58719052  0.09138238     0.36400
N1695       N  0.64767455  0.57724876  0.02689110    -0.38400
N1696       N  0.55514285  0.58965877  0.10161657    -0.38400
N1697       N  0.60370004  0.53724013  0.02578170    -0.37900
N1698       N  0.60263245  0.62444274  0.10769018    -0.37900
C1699       C  0.97426647  0.59306440  0.06564291    -0.04500
C1700       C  0.99321421  0.60234209  0.06749756    -0.01700
C1701       C  0.00735051  0.60080424  0.05202684     0.03300
C1702       C  0.00250187  0.59071616  0.03423372    -0.04500
C1703       C  0.98395602  0.58090689  0.03253864    -0.01700
C1704       C  0.97004762  0.58177363  0.04827155     0.03300
C1705       C  0.99810121  0.61425696  0.08485936     0.38000
C1706       C  0.97885772  0.57048178  0.01427854     0.38000
C1707       C  0.95158331  0.57059036  0.04660712     0.36400
C1708       C  0.02716543  0.60920999  0.05460683     0.36400
N1709       N  0.93689603  0.56161305  0.04519196    -0.38400
N1710       N  0.04303115  0.61571595  0.05667430    -0.38400
N1711       N  0.97481592  0.56223222  0.99968196    -0.37900
N1712       N  0.00217774  0.62379746  0.09864172    -0.37900
C1713       C  0.93310685  0.61955716  0.22278512    -0.04500
C1714       C  0.92384164  0.63515589  0.23350379    -0.01700
C1715       C  0.92977164  0.63956770  0.25318867     0.03300
C1716       C  0.94566321  0.62906902  0.26216601    -0.04500
C1717       C  0.95497422  0.61353839  0.25143353    -0.01700
C1718       C  0.94846592  0.60855123  0.23206201     0.03300
C1719       C  0.90863462  0.64729735  0.22417534     0.38000
C1720       C  0.97178755  0.60302570  0.25995297     0.38000
C1721       C  0.95731469  0.59164060  0.22196148     0.36400
C1722       C  0.91898600  0.65460870  0.26432781     0.36400
N1723       N  0.96437378  0.57812407  0.21396363    -0.38400
N1724       N  0.91031435  0.66659094  0.27314669    -0.38400
N1725       N  0.98523348  0.59462037  0.26664817    -0.37900
N1726       N  0.89650929  0.65706859  0.21685617    -0.37900
C1727       C  0.81712604  0.61983953  0.10769554    -0.04500
C1728       C  0.81290589  0.63518871  0.09400281    -0.01700
C1729       C  0.79300989  0.63976698  0.08907419     0.03300
C1730       C  0.77704256  0.62964316  0.09840738    -0.04500
C1731       C  0.78125337  0.61428702  0.11210718    -0.01700
C1732       C  0.80118735  0.60918763  0.11645370     0.03300
C1733       C  0.82895361  0.64700736  0.08560293     0.38000
C1734       C  0.76515416  0.60425187  0.12247082     0.38000
C1735       C  0.80523991  0.59267519  0.12970165     0.36400
C1736       C  0.78907548  0.65470603  0.07402983     0.36400
N1737       N  0.80844831  0.57946081  0.14021616    -0.38400
N1738       N  0.78597710  0.66659978  0.06201135    -0.38400
N1739       N  0.75236442  0.59627226  0.13083906    -0.37900
N1740       N  0.84169301  0.65653755  0.07894669    -0.37900
C1741       C  0.98833224  0.96438464  0.40898795    -0.04500
C1742       C  0.97247322  0.96652319  0.42271587    -0.01700
C1743       C  0.95745972  0.95178318  0.42409347     0.03300
C1744       C  0.95820845  0.93464832  0.41189810    -0.04500
C1745       C  0.97379538  0.93275986  0.39782722    -0.01700
C1746       C  0.98876556  0.94750716  0.39640290     0.03300
C1747       C  0.97123759  0.98419922  0.43510132     0.38000
C1748       C  0.97417567  0.91590675  0.38429199     0.38000
C1749       C  0.00490632  0.94497601  0.38225525     0.36400
C1750       C  0.94144195  0.95414665  0.43838237     0.36400
N1751       N  0.01774666  0.94295227  0.37094580    -0.38400
N1752       N  0.92865524  0.95614292  0.44975510    -0.38400
N1753       N  0.97448848  0.90248770  0.37347598    -0.37900
N1754       N  0.97030199  0.99831241  0.44495145    -0.37900
C1755       C  0.80584756  0.87746174  0.38362149    -0.04500
C1756       C  0.78973061  0.86641599  0.39158113    -0.01700
C1757       C  0.77005757  0.86980892  0.38485906     0.03300
C1758       C  0.76623345  0.88441473  0.37026653    -0.04500
C1759       C  0.78236897  0.89515934  0.36202678    -0.01700
C1760       C  0.80206112  0.89154920  0.36849477     0.03300
C1761       C  0.79324118  0.85185227  0.40707577     0.38000
C1762       C  0.77871270  0.91046848  0.34730712     0.38000
C1763       C  0.81848402  0.90190119  0.35898599     0.36400
C1764       C  0.75379361  0.85786349  0.39263675     0.36400
N1765       N  0.83156175  0.91010302  0.35130361    -0.38400
N1766       N  0.74086546  0.84824782  0.39879367    -0.38400
N1767       N  0.77578930  0.92270350  0.33559366    -0.37900
N1768       N  0.79601025  0.84020552  0.41941379    -0.37900
C1769       C  0.94970059  0.74035542  0.37936965    -0.04500
C1770       C  0.95829369  0.75827578  0.37256435    -0.01700
C1771       C  0.95031168  0.77675126  0.37853339     0.03300
C1772       C  0.93382982  0.77745406  0.39166310    -0.04500
C1773       C  0.92555579  0.75947979  0.39882859    -0.01700
C1774       C  0.93331897  0.74102940  0.39256117     0.03300
C1775       C  0.97566995  0.75771662  0.35972647     0.38000
C1776       C  0.90930771  0.75989331  0.41306744     0.38000
C1777       C  0.92394290  0.72273487  0.39921596     0.36400
C1778       C  0.95869750  0.79495978  0.37051344     0.36400
N1779       N  0.91642801  0.70816018  0.40450506    -0.38400
N1780       N  0.96543176  0.80944189  0.36406389    -0.38400
N1781       N  0.89638301  0.76018734  0.42445813    -0.37900
N1782       N  0.98958542  0.75725901  0.34957076    -0.37900
C1783       C  0.62246656  0.94530328  0.05341883    -0.04500
C1784       C  0.63332734  0.96333671  0.05466612    -0.01700
C1785       C  0.63104062  0.97804430  0.03995603     0.03300
C1786       C  0.61866688  0.97452751  0.02329383    -0.04500
C1787       C  0.60741863  0.95673599  0.02222120    -0.01700
C1788       C  0.60920678  0.94224549  0.03730251     0.03300
C1789       C  0.64771210  0.96646642  0.07051097     0.38000
C1790       C  0.59442577  0.95302086  0.00533146     0.38000
C1791       C  0.59714199  0.92431773  0.03632341     0.36400
C1792       C  0.64101368  0.99711629  0.04230411     0.36400
N1793       N  0.58746830  0.91005101  0.03551066    -0.38400
N1794       N  0.64878191  0.01239843  0.04423250    -0.38400
N1795       N  0.58404703  0.95007906  0.99187124    -0.37900
N1796       N  0.65928565  0.96895050  0.08305779    -0.37900
C1797       C  0.65330098  0.90677363  0.25237131    -0.04500
C1798       C  0.63714670  0.89452907  0.24651448    -0.01700
C1799       C  0.63258714  0.89195763  0.22616584     0.03300
C1800       C  0.64412095  0.90158107  0.21142037    -0.04500
C1801       C  0.65981683  0.91440196  0.21729487    -0.01700
C1802       C  0.66432339  0.91703311  0.23767374     0.03300
C1803       C  0.62557449  0.88392862  0.26133955     0.38000
C1804       C  0.67195821  0.92425226  0.20240513     0.38000
C1805       C  0.68011816  0.93063851  0.24352195     0.36400
C1806       C  0.61583820  0.87946232  0.22043061     0.36400
N1807       N  0.69265953  0.94156577  0.24816956    -0.38400
N1808       N  0.60251453  0.86947862  0.21582770    -0.38400
N1809       N  0.68167661  0.93211515  0.19055635    -0.37900
N1810       N  0.61626316  0.87546238  0.27309499    -0.37900
C1811       C  0.66731014  0.74968823  0.09063881    -0.04500
C1812       C  0.67569761  0.76006746  0.10700511    -0.01700
C1813       C  0.67066309  0.78011474  0.11058383     0.03300
C1814       C  0.65668973  0.78988026  0.09824673    -0.04500
C1815       C  0.64810535  0.77945505  0.08208160    -0.01700
C1816       C  0.65369741  0.75964226  0.07804013     0.03300
C1817       C  0.68902311  0.75006532  0.12072887     0.38000
C1818       C  0.63276961  0.78874927  0.07006837     0.38000
C1819       C  0.64574594  0.74977715  0.06050728     0.36400
C1820       C  0.68021774  0.79070123  0.12688124     0.36400
N1821       N  0.63938401  0.74200282  0.04648167    -0.38400
N1822       N  0.68783647  0.79903640  0.13993345    -0.38400
N1823       N  0.62044364  0.79609722  0.06056448    -0.37900
N1824       N  0.69967711  0.74222022  0.13173320    -0.37900
C1825       C  0.11513909  0.57923533  0.41029599    -0.04500
C1826       C  0.13138931  0.57556720  0.42302347    -0.01700
C1827       C  0.12979042  0.56129880  0.43831370     0.03300
C1828       C  0.11153352  0.55098242  0.44149453    -0.04500
C1829       C  0.09551503  0.55420977  0.42799791    -0.01700
C1830       C  0.09741284  0.56818951  0.41247485     0.03300
C1831       C  0.15001971  0.58620449  0.42003647     0.38000
C1832       C  0.07722354  0.54268218  0.42937788     0.38000
C1833       C  0.08097913  0.57138140  0.39879010     0.36400
C1834       C  0.14722598  0.55725238  0.45039787     0.36400
N1835       N  0.06792010  0.57388436  0.38782810    -0.38400
N1836       N  0.16138472  0.55391603  0.45963899    -0.38400
N1837       N  0.06261150  0.53353236  0.43037373    -0.37900
N1838       N  0.16487171  0.59466083  0.41761480    -0.37900
C1839       C  0.46081068  0.92047115  0.41359321    -0.04500
C1840       C  0.47392334  0.93695336  0.41260681    -0.01700
C1841       C  0.48955278  0.93912823  0.42657434     0.03300
C1842       C  0.49199898  0.92502663  0.44199677    -0.04500
C1843       C  0.47798418  0.90924499  0.44365780    -0.01700
C1844       C  0.46288592  0.90668379  0.42924852     0.03300
C1845       C  0.47110077  0.95198875  0.39741342     0.38000
C1846       C  0.47851628  0.89591438  0.46062017     0.38000
C1847       C  0.45007664  0.88925998  0.43011284     0.36400
C1848       C  0.50321238  0.95577215  0.42468658     0.36400
N1849       N  0.43999603  0.87527325  0.43078461    -0.38400
N1850       N  0.51392044  0.96919582  0.42306069    -0.38400
N1851       N  0.47885600  0.88537818  0.47420520    -0.37900
N1852       N  0.46879145  0.96398699  0.38532138    -0.37900
C1853       C  0.46835917  0.59961676  0.06289417    -0.04500
C1854       C  0.46945365  0.58613828  0.07895013    -0.01700
C1855       C  0.48384738  0.57091398  0.07902818     0.03300
C1856       C  0.49836403  0.56977916  0.06376471    -0.04500
C1857       C  0.49737714  0.58345398  0.04774547    -0.01700
C1858       C  0.48224411  0.59805043  0.04718009     0.03300
C1859       C  0.45614091  0.58822258  0.09584405     0.38000
C1860       C  0.51195823  0.58277178  0.03182543     0.38000
C1861       C  0.48054131  0.61098928  0.03001613     0.36400
C1862       C  0.48287495  0.55578005  0.09437412     0.36400
N1863       N  0.47910576  0.62121201  0.01626590    -0.38400
N1864       N  0.48193551  0.54361233  0.10648780    -0.38400
N1865       N  0.52350818  0.58226619  0.01905172    -0.37900
N1866       N  0.44561671  0.58991741  0.10937332    -0.37900
C1867       C  0.44792143  0.95145957  0.05692207    -0.04500
C1868       C  0.43614111  0.94916009  0.03956589    -0.01700
C1869       C  0.43576916  0.96423935  0.02504741     0.03300
C1870       C  0.44698016  0.98183817  0.02779531    -0.04500
C1871       C  0.45874732  0.98419498  0.04507779    -0.01700
C1872       C  0.45940956  0.96897163  0.05946680     0.03300
C1873       C  0.42399294  0.93148581  0.03667410     0.38000
C1874       C  0.46971029  0.00256865  0.04837870     0.38000
C1875       C  0.47255344  0.97107530  0.07650219     0.36400
C1876       C  0.42421642  0.96137644  0.00697306     0.36400
N1877       N  0.48313857  0.97274483  0.09001232    -0.38400
N1878       N  0.41503990  0.95913139  0.99254886    -0.38400
N1879       N  0.47835091  0.01727007  0.05103164    -0.37900
N1880       N  0.41434121  0.91738800  0.03422246    -0.37900
C1881       C  0.42733830  0.90353098  0.21353701    -0.04500
C1882       C  0.41275917  0.91729813  0.21988550    -0.01700
C1883       C  0.40934515  0.92044687  0.24037175     0.03300
C1884       C  0.42007679  0.90950042  0.25475620    -0.04500
C1885       C  0.43521769  0.89632941  0.24842102    -0.01700
C1886       C  0.43886534  0.89342912  0.22793700     0.03300
C1887       C  0.40048080  0.92755132  0.20541837     0.38000
C1888       C  0.44665631  0.88511461  0.26285654     0.38000
C1889       C  0.45466439  0.88007977  0.22173546     0.36400
C1890       C  0.39498750  0.93530639  0.24662683     0.36400
N1891       N  0.46723751  0.86939644  0.21681988    -0.38400
N1892       N  0.38360679  0.94722274  0.25160364    -0.38400
N1893       N  0.45589459  0.87617221  0.27428266    -0.37900
N1894       N  0.39059730  0.93571207  0.19394274    -0.37900
C1895       C  0.43050078  0.79400502  0.09172618    -0.04500
C1896       C  0.41609491  0.79093576  0.07664303    -0.01700
C1897       C  0.41124192  0.77147201  0.07031306     0.03300
C1898       C  0.42083286  0.75487914  0.07889614    -0.04500
C1899       C  0.43533596  0.75798699  0.09390804    -0.01700
C1900       C  0.44016198  0.77744312  0.10023781     0.03300
C1901       C  0.40574117  0.80775544  0.06800327     0.38000
C1902       C  0.44483132  0.74117344  0.10349012     0.38000
C1903       C  0.45542088  0.78039021  0.11529095     0.36400
C1904       C  0.39651320  0.76860512  0.05473537     0.36400
N1905       N  0.46760954  0.78268305  0.12728105    -0.38400
N1906       N  0.38472063  0.76639418  0.04234232    -0.38400
N1907       N  0.45243301  0.72779062  0.11114785    -0.37900
N1908       N  0.39750904  0.82116647  0.06107960    -0.37900
C1909       C  0.10524883  0.93641756  0.39734971    -0.04500
C1910       C  0.09084049  0.93528137  0.41269709    -0.01700
C1911       C  0.07625017  0.95029411  0.41481371     0.03300
C1912       C  0.07619848  0.96692584  0.40194872    -0.04500
C1913       C  0.09117663  0.96846828  0.38722871    -0.01700
C1914       C  0.10523697  0.95311356  0.38458915     0.03300
C1915       C  0.09119434  0.91887452  0.42666513     0.38000
C1916       C  0.09273031  0.98622699  0.37515021     0.38000
C1917       C  0.11909509  0.95420596  0.36804678     0.36400
C1918       C  0.06093459  0.94823327  0.42991116     0.36400
N1919       N  0.13003072  0.95510099  0.35476721    -0.38400
N1920       N  0.04871128  0.94658952  0.44194305    -0.38400
N1921       N  0.09438313  0.00035665  0.36551634    -0.37900
N1922       N  0.09144372  0.90583124  0.43786382    -0.37900
C1923       C  0.26182730  0.88752271  0.37304888    -0.04500
C1924       C  0.27189190  0.90331880  0.38282810    -0.01700
C1925       C  0.29254382  0.90634218  0.37984155     0.03300
C1926       C  0.30339215  0.89359690  0.36711416    -0.04500
C1927       C  0.29341896  0.87770189  0.35752068    -0.01700
C1928       C  0.27273084  0.87492949  0.36012048     0.03300
C1929       C  0.26117976  0.91637082  0.39627068     0.38000
C1930       C  0.30456576  0.86367175  0.34544957     0.38000
C1931       C  0.26261999  0.85954901  0.34871227     0.36400
C1932       C  0.30251386  0.92289822  0.38957885     0.36400
N1933       N  0.25462188  0.84731546  0.33952265    -0.38400
N1934       N  0.31046742  0.93608420  0.39737969    -0.38400
N1935       N  0.31344549  0.85239712  0.33593248    -0.37900
N1936       N  0.25269662  0.92690037  0.40693662    -0.37900
C1937       C  0.14435607  0.77673964  0.37692567    -0.04500
C1938       C  0.15260596  0.76139109  0.38864430    -0.01700
C1939       C  0.14884045  0.74123358  0.38393399     0.03300
C1940       C  0.13679649  0.73613862  0.36735575    -0.04500
C1941       C  0.12812153  0.75154327  0.35595647    -0.01700
C1942       C  0.13187785  0.77169838  0.36071027     0.03300
C1943       C  0.16485039  0.76630747  0.40579505     0.38000
C1944       C  0.11498332  0.74676106  0.33945069     0.38000
C1945       C  0.12344616  0.78720948  0.34834825     0.36400
C1946       C  0.15803985  0.72582103  0.39586657     0.26800
N1947       N  0.11668152  0.79954404  0.33846941    -0.38400
N1948       N  0.16536084  0.71360978  0.40550239    -0.38400
N1949       N  0.10453276  0.74301010  0.32624697    -0.37900
N1950       N  0.17463899  0.77020239  0.41945465    -0.37900
C1951       C  0.11970578  0.59008453  0.05593459    -0.04500
C1952       C  0.10445909  0.57550700  0.05671180    -0.01700
C1953       C  0.08902729  0.57534186  0.04242003     0.03300
C1954       C  0.08894697  0.58940386  0.02680033    -0.04500
C1955       C  0.10477893  0.60331948  0.02543051    -0.01700
C1956       C  0.11982777  0.60392447  0.04011273     0.03300
C1957       C  0.10475075  0.56035017  0.07204532     0.38000
C1958       C  0.10593099  0.61681641  0.00863469     0.38000
C1959       C  0.13488119  0.61946103  0.03930333     0.36400
C1960       C  0.07285125  0.56108508  0.04433948     0.36400
N1961       N  0.14681757  0.63191276  0.03862284    -0.38400
N1962       N  0.05995663  0.54971720  0.04590112    -0.38400
N1963       N  0.10693220  0.62752039  0.99521237    -0.37900
N1964       N  0.10496289  0.54823636  0.08424396    -0.37900
C1965       C  0.27373514  0.62150702  0.10402981    -0.04500
C1966       C  0.28272659  0.63831905  0.11309213    -0.01700
C1967       C  0.30182556  0.64475830  0.10701762     0.03300
C1968       C  0.31190462  0.63483508  0.09142414    -0.04500
C1969       C  0.30298547  0.61793269  0.08250702    -0.01700
C1970       C  0.28426010  0.61103432  0.08911388     0.03300
C1971       C  0.27221093  0.64945563  0.12831376     0.38000
C1972       C  0.31264519  0.60798695  0.06594286     0.38000
C1973       C  0.27617866  0.59268020  0.08097086     0.36400
C1974       C  0.31126868  0.66133198  0.11725724     0.36400
N1975       N  0.26981293  0.57797203  0.07457600    -0.38400
N1976       N  0.31879247  0.67452463  0.12546340    -0.38400
N1977       N  0.32024957  0.60006989  0.05266997    -0.37900
N1978       N  0.26393745  0.65839950  0.14048913    -0.37900
C1979       C  0.15339446  0.60790389  0.21447927    -0.04500
C1980       C  0.13748389  0.62128347  0.21776869    -0.01700
C1981       C  0.13123241  0.62567654  0.23731410     0.03300
C1982       C  0.14119083  0.61724540  0.25375305    -0.04500
C1983       C  0.15665519  0.60338353  0.25047041    -0.01700
C1984       C  0.16263139  0.59864188  0.23091720     0.03300
C1985       C  0.12806690  0.63131707  0.20116239     0.38000
C1986       C  0.16693288  0.59441248  0.26717661     0.38000
C1987       C  0.17814937  0.58397566  0.22775188     0.36400
C1988       C  0.11415960  0.63850359  0.24048440     0.36400
N1989       N  0.19050598  0.57226241  0.22523950    -0.38400
N1990       N  0.10042782  0.64858122  0.24297998    -0.38400
N1991       N  0.17513636  0.58719107  0.28046215    -0.37900
N1992       N  0.12056175  0.63938219  0.18795287    -0.37900
C1993       C  0.61222381  0.92781426  0.55669656    -0.04500
C1994       C  0.60037528  0.91074464  0.55365111    -0.01700
C1995       C  0.58619804  0.91015523  0.53809967     0.03300
C1996       C  0.58306373  0.92709385  0.52579655    -0.04500
C1997       C  0.59546102  0.94405798  0.52873138    -0.01700
C1998       C  0.60992187  0.94432872  0.54403681     0.03300
C1999       C  0.60319910  0.89344325  0.56622605     0.38000
C2000       C  0.59416560  0.96106633  0.51554605     0.38000
C2001       C  0.62233074  0.96182707  0.54696527     0.36400
C2002       C  0.57539929  0.89171581  0.53472624     0.36400
N2003       N  0.63224848  0.97575559  0.54931287    -0.38400
N2004       N  0.56725266  0.87675806  0.53195736    -0.38400
N2005       N  0.59325378  0.97465453  0.50505023    -0.37900
N2006       N  0.60541477  0.87964366  0.57623376    -0.37900
C2007       C  0.61168330  0.58188890  0.90142086    -0.04500
C2008       C  0.59517079  0.58363089  0.91438885    -0.01700
C2009       C  0.57975294  0.56930184  0.91396554     0.03300
C2010       C  0.58100530  0.55273968  0.90103985    -0.04500
C2011       C  0.59775862  0.55069641  0.88847129    -0.01700
C2012       C  0.61283192  0.56536041  0.88839286     0.03300
C2013       C  0.59409920  0.60001581  0.92844090     0.38000
C2014       C  0.59970150  0.53331514  0.87575518     0.38000
C2015       C  0.62898799  0.56381696  0.87412889     0.36400
C2016       C  0.56214149  0.57215515  0.92617544     0.36400
N2017       N  0.64181347  0.56259627  0.86268758    -0.38400
N2018       N  0.54802363  0.57444705  0.93578981    -0.38400
N2019       N  0.60128875  0.51944532  0.86565046    -0.37900
N2020       N  0.59319054  0.61302536  0.93971149    -0.37900
C2021       C  0.97549537  0.58557656  0.56426764    -0.04500
C2022       C  0.98773396  0.58781707  0.54722930    -0.01700
C2023       C  0.98846694  0.57271118  0.53248496     0.03300
C2024       C  0.97734364  0.55496776  0.53481104    -0.04500
C2025       C  0.96592167  0.55232826  0.55226149    -0.01700
C2026       C  0.96481498  0.56754355  0.56676709     0.03300
C2027       C  0.99996554  0.60550031  0.54501710     0.38000
C2028       C  0.95544481  0.53371777  0.55551934     0.38000
C2029       C  0.95190180  0.56478030  0.58384469     0.36400
C2030       C  0.99997224  0.57584472  0.51448771     0.36400
N2031       N  0.94157740  0.56245891  0.59743346    -0.38400
N2032       N  0.00905707  0.57836638  0.50007599    -0.38400
N2033       N  0.94713934  0.51888209  0.55830076    -0.37900
N2034       N  0.00984582  0.61953304  0.54327476    -0.37900
C2035       C  0.96631216  0.60141620  0.91664347    -0.04500
C2036       C  0.98185732  0.58750197  0.91384028    -0.01700
C2037       C  0.99639212  0.58463566  0.92876816     0.03300
C2038       C  0.99555888  0.59563457  0.94670733    -0.04500
C2039       C  0.97963357  0.60901731  0.94981555    -0.01700
C2040       C  0.96522673  0.61206190  0.93480038     0.03300
C2041       C  0.98282081  0.57582500  0.89568334     0.38000
C2042       C  0.97774240  0.61932107  0.96872885     0.38000
C2043       C  0.94980157  0.62684438  0.93780670     0.36400
C2044       C  0.01255132  0.57074030  0.92532208     0.36400
N2045       N  0.93757231  0.63870501  0.94024918    -0.38400
N2046       N  0.02539725  0.55961453  0.92258670    -0.38400
N2047       N  0.97620975  0.62742516  0.98386110    -0.37900
N2048       N  0.98365030  0.56652572  0.88119574    -0.37900
C2049       C  0.80919590  0.61796345  0.86832498    -0.04500
C2050       C  0.80341259  0.63146621  0.88342088    -0.01700
C2051       C  0.78304847  0.63556124  0.88670623     0.03300
C2052       C  0.76822725  0.62599509  0.87517671    -0.04500
C2053       C  0.77392260  0.61199932  0.86055777    -0.01700
C2054       C  0.79430961  0.60809492  0.85705104     0.03300
C2055       C  0.81838534  0.64180629  0.89514892     0.38000
C2056       C  0.75882176  0.60212586  0.84858910     0.38000
C2057       C  0.79991477  0.59371300  0.84194273     0.36400
C2058       C  0.77734451  0.64957922  0.90211938     0.36400
N2059       N  0.80433293  0.58224736  0.82986606    -0.38400
N2060       N  0.77281445  0.66078393  0.91439496    -0.38400
N2061       N  0.74676413  0.59426195  0.83904967    -0.37900
N2062       N  0.83030691  0.65001763  0.90456592    -0.37900
C2063       C  0.92963263  0.63001226  0.75827680    -0.04500
C2064       C  0.92093692  0.61883144  0.74262572    -0.01700
C2065       C  0.92686492  0.62203582  0.72271709     0.03300
C2066       C  0.94143184  0.63655695  0.71817524    -0.04500
C2067       C  0.94993794  0.64791857  0.73377346    -0.01700
C2068       C  0.94412653  0.64462778  0.75370576     0.03300
C2069       C  0.90596635  0.60382555  0.74692974     0.38000
C2070       C  0.96483992  0.66296359  0.72936860     0.38000
C2071       C  0.95249005  0.65693899  0.76941476     0.36400
C2072       C  0.91731991  0.61089585  0.70681490     0.36400
N2073       N  0.95911617  0.66678410  0.78194513    -0.38400
N2074       N  0.90967549  0.60204230  0.69412656    -0.38400
N2075       N  0.97669897  0.67500805  0.72591564    -0.37900
N2076       N  0.89393846  0.59192476  0.75030284    -0.37900
C2077       C  0.62259536  0.93664773  0.90905883    -0.04500
C2078       C  0.61415063  0.95517236  0.90362735    -0.01700
C2079       C  0.61298975  0.97082504  0.91759457     0.03300
C2080       C  0.62033352  0.96820820  0.93705442    -0.04500
C2081       C  0.62816202  0.94963397  0.94276603    -0.01700
C2082       C  0.62910783  0.93383126  0.92892249     0.03300
C2083       C  0.60621040  0.95815080  0.88377480     0.38000
C2084       C  0.63509028  0.94673210  0.96301876     0.38000
C2085       C  0.63730726  0.91491080  0.93517418     0.36400
C2086       C  0.60475157  0.98989118  0.91176899     0.36400
N2087       N  0.64369837  0.89980458  0.94032991    -0.38400
N2088       N  0.59819530  0.00510913  0.90718481    -0.38400
N2089       N  0.64062410  0.94442383  0.97915777    -0.37900
N2090       N  0.59991254  0.96063476  0.86794369    -0.37900
C2091       C  0.65244636  0.89783088  0.75365926    -0.04500
C2092       C  0.64212167  0.91430973  0.74562454    -0.01700
C2093       C  0.64594364  0.92063748  0.72594976     0.03300
C2094       C  0.65967876  0.91022465  0.71390808    -0.04500
C2095       C  0.66964366  0.89349207  0.72179800    -0.01700
C2096       C  0.66641520  0.88763832  0.74166672     0.03300
C2097       C  0.62714400  0.92452181  0.75735447     0.38000
C2098       C  0.68279072  0.88176160  0.70930595     0.38000
C2099       C  0.67817474  0.87156283  0.74993022     0.36400
C2100       C  0.63613927  0.93825358  0.71832888     0.36400
N2101       N  0.68764913  0.85880992  0.75650455    -0.38400
N2102       N  0.62836993  0.95236100  0.71231496    -0.38400
N2103       N  0.69320580  0.87232356  0.69935633    -0.37900
N2104       N  0.61516243  0.93268040  0.76665689    -0.37900
C2105       C  0.63980989  0.77893745  0.86598132    -0.04500
C2106       C  0.62926508  0.76345886  0.85632091    -0.01700
C2107       C  0.63408374  0.74340252  0.86010259     0.03300
C2108       C  0.64931591  0.73866219  0.87382093    -0.04500
C2109       C  0.65903847  0.75411801  0.88435062    -0.01700
C2110       C  0.65441920  0.77417528  0.88035407     0.03300
C2111       C  0.61314103  0.76816947  0.84274393     0.38000
C2112       C  0.67356117  0.74938093  0.89962394     0.38000
C2113       C  0.66528255  0.78986271  0.89056315     0.36400
C2114       C  0.62384007  0.72771975  0.84926169     0.36400
N2115       N  0.67398586  0.80232395  0.89875081    -0.38400
N2116       N  0.61565653  0.71523265  0.84059274    -0.38400
N2117       N  0.68506820  0.74556130  0.91185706    -0.37900
N2118       N  0.60019067  0.77192816  0.83202373    -0.37900
C2119       C  0.96964452  0.93797057  0.56902672    -0.04500
C2120       C  0.96823261  0.95474943  0.55637347    -0.01700
C2121       C  0.98282819  0.96991449  0.55709456     0.03300
C2122       C  0.99959541  0.96806027  0.56968367    -0.04500
C2123       C  0.00135493  0.95108589  0.58191294    -0.01700
C2124       C  0.98627028  0.93637289  0.58194123     0.03300
C2125       C  0.95207356  0.95631123  0.54210009     0.38000
C2126       C  0.01899746  0.94841381  0.59413195     0.38000
C2127       C  0.98762879  0.92005457  0.59594766     0.36400
C2128       C  0.98012715  0.98783442  0.54538833     0.36400
N2129       N  0.98877587  0.90711711  0.60721157    -0.38400
N2130       N  0.97792990  0.00219148  0.53618907    -0.38400
N2131       N  0.03311314  0.94625119  0.60378828    -0.37900
N2132       N  0.93925967  0.95765095  0.53064610    -0.37900
C2133       C  0.91693131  0.78137934  0.58773098    -0.04500
C2134       C  0.93300725  0.77167516  0.57806698    -0.01700
C2135       C  0.93764944  0.75163737  0.58245425     0.03300
C2136       C  0.92602376  0.74074188  0.59619366    -0.04500
C2137       C  0.90930400  0.75001934  0.60501858    -0.01700
C2138       C  0.90495928  0.77021232  0.60109836     0.03300
C2139       C  0.94475439  0.78207574  0.56324102     0.38000
C2140       C  0.89622803  0.73869825  0.61799430     0.38000
C2141       C  0.88855738  0.77949370  0.61164683     0.36400
C2142       C  0.95499424  0.74256733  0.57333387     0.36400
N2143       N  0.87539791  0.78668163  0.62013050    -0.38400
N2144       N  0.96884181  0.73537674  0.56603794    -0.38400
N2145       N  0.88574559  0.72973340  0.62832123    -0.37900
N2146       N  0.95424808  0.79025082  0.55142303    -0.37900
C2147       C  0.81002274  0.90538337  0.58622749    -0.04500
C2148       C  0.80643408  0.92175613  0.59903860    -0.01700
C2149       C  0.78670684  0.92733112  0.60379087     0.03300
C2150       C  0.77037287  0.91637782  0.59617314    -0.04500
C2151       C  0.77393393  0.90026321  0.58311611    -0.01700
C2152       C  0.79359568  0.89509078  0.57783881     0.03300
C2153       C  0.82293235  0.93249303  0.60805890     0.38000
C2154       C  0.75744815  0.88823729  0.57584614     0.38000
C2155       C  0.79680689  0.87936402  0.56336705     0.36400
C2156       C  0.78323800  0.94453139  0.61640576     0.36400
N2157       N  0.79931261  0.86686107  0.55177641    -0.38400
N2158       N  0.78049310  0.95827497  0.62642933    -0.38400
N2159       N  0.74433684  0.87855451  0.57012720    -0.37900
N2160       N  0.83601856  0.94114001  0.61529768    -0.37900
C2161       C  0.46588877  0.92528367  0.55745447    -0.04500
C2162       C  0.48214808  0.91199193  0.55810676    -0.01700
C2163       C  0.49691346  0.91245801  0.54318531     0.03300
C2164       C  0.49532876  0.92577124  0.52700286    -0.04500
C2165       C  0.47874704  0.93873219  0.52606106    -0.01700
C2166       C  0.46423002  0.93861951  0.54129713     0.03300
C2167       C  0.48337395  0.89717599  0.57372904     0.38000
C2168       C  0.47620510  0.95182102  0.50910590     0.38000
C2169       C  0.44779791  0.95258044  0.54047910     0.36400
C2170       C  0.51404062  0.89951581  0.54499899     0.36400
N2171       N  0.43472683  0.96375143  0.53976296    -0.38400
N2172       N  0.52758924  0.88908554  0.54678216    -0.38400
N2173       N  0.47416422  0.96222175  0.49556650    -0.37900
N2174       N  0.48433841  0.88529436  0.58611591    -0.37900
C2175       C  0.11348930  0.58440184  0.56040898    -0.04500
C2176       C  0.09930213  0.56892027  0.56236274    -0.01700
C2177       C  0.09772230  0.55400352  0.54763015     0.03300
C2178       C  0.10991676  0.55470304  0.53049838    -0.04500
C2179       C  0.12396818  0.57026832  0.52846426    -0.01700
C2180       C  0.12587681  0.58493734  0.54339417     0.03300
C2181       C  0.08588396  0.56856062  0.57928228     0.38000
C2182       C  0.13628368  0.57155708  0.51080909     0.38000
C2183       C  0.14112103  0.60018558  0.54141923     0.36400
C2184       C  0.08407102  0.53746902  0.55055924     0.36400
N2185       N  0.15330063  0.61230174  0.53975575    -0.38400
N2186       N  0.07328725  0.52421869  0.55295904    -0.38400
N2187       N  0.14623413  0.57286960  0.49683417    -0.37900
N2188       N  0.07515087  0.56828977  0.59275117    -0.37900
C2189       C  0.46613292  0.58962566  0.90000013    -0.04500
C2190       C  0.46445291  0.57379383  0.91370957    -0.01700
C2191       C  0.47842661  0.55814052  0.91353018     0.03300
C2192       C  0.49472100  0.55855668  0.90015804    -0.04500
C2193       C  0.49693920  0.57494602  0.88717061    -0.01700
C2194       C  0.48239513  0.59003834  0.88664783     0.03300
C2195       C  0.44858132  0.57376042  0.92837134     0.38000
C2196       C  0.51459129  0.57676881  0.87481531     0.38000
C2197       C  0.48373141  0.60545456  0.87163454     0.36400
C2198       C  0.47559123  0.54134699  0.92677637     0.36400
N2199       N  0.48471523  0.61762779  0.85953061    -0.38400
N2200       N  0.47332052  0.52795052  0.93732398    -0.38400
N2201       N  0.52875719  0.57833283  0.86511850    -0.37900
N2202       N  0.43599977  0.57371994  0.94014298    -0.37900
C2203       C  0.11261057  0.59489586  0.91168802    -0.04500
C2204       C  0.09599073  0.60773977  0.91074730    -0.01700
C2205       C  0.08096665  0.60673559  0.92540160     0.03300
C2206       C  0.08263989  0.59315765  0.94133987    -0.04500
C2207       C  0.09922975  0.58024708  0.94219220    -0.01700
C2208       C  0.11406586  0.58104405  0.92738080     0.03300
C2209       C  0.09466930  0.62255223  0.89514074     0.38000
C2210       C  0.10146106  0.56650104  0.95866113     0.38000
C2211       C  0.13067125  0.56727432  0.92814170     0.36400
C2212       C  0.06351036  0.61932749  0.92373212     0.36400
N2213       N  0.14391005  0.55629724  0.92875556    -0.38400
N2214       N  0.04954730  0.62929993  0.92235925    -0.38400
N2215       N  0.10325072  0.55553254  0.97177759    -0.37900
N2216       N  0.09363014  0.63443555  0.88275981    -0.37900
C2217       C  0.30891645  0.63352819  0.88387809    -0.04500
C2218       C  0.29796588  0.64540988  0.87038288    -0.01700
C2219       C  0.27820490  0.64027596  0.86525828     0.03300
C2220       C  0.26937924  0.62278087  0.87288309    -0.04500
C2221       C  0.28028102  0.61081262  0.88624755    -0.01700
C2222       C  0.29986666  0.61622009  0.89184306     0.03300
C2223       C  0.30722098  0.66245311  0.86088374     0.38000
C2224       C  0.27159119  0.59254576  0.89383943     0.38000
C2225       C  0.31051308  0.60397509  0.90604180     0.36400
C2226       C  0.26676317  0.65342289  0.85254876     0.36400
N2227       N  0.31893315  0.59408364  0.91731118    -0.38400
N2228       N  0.25763742  0.66398031  0.84250130    -0.38400
N2229       N  0.26466640  0.57797536  0.89988053    -0.37900
N2230       N  0.31455004  0.67601145  0.85319520    -0.37900
C2231       C  0.15549682  0.61040646  0.75586459    -0.04500
C2232       C  0.16574811  0.60221458  0.73942460    -0.01700
C2233       C  0.16089635  0.60816517  0.71992986     0.03300
C2234       C  0.14525690  0.62177360  0.71667266    -0.04500
C2235       C  0.13457491  0.62950374  0.73300854    -0.01700
C2236       C  0.13979712  0.62403394  0.75255202     0.03300
C2237       C  0.18098129  0.58725401  0.74248157     0.38000
C2238       C  0.11802017  0.64295332  0.72970515     0.38000
C2239       C  0.12943445  0.63310204  0.76918968     0.36400
C2240       C  0.17264841  0.60098617  0.70329226     0.36400
N2241       N  0.12113336  0.64036758  0.78241825    -0.38400
N2242       N  0.18211576  0.59541869  0.69002558    -0.38400
N2243       N  0.10478439  0.65363271  0.72708579    -0.37900
N2244       N  0.19303938  0.57521980  0.74486906    -0.37900
C2245       C  0.11487558  0.93600254  0.56719913    -0.04500
C2246       C  0.11639512  0.95150623  0.58137347    -0.01700
C2247       C  0.10224505  0.96699432  0.58165965     0.03300
C2248       C  0.08608926  0.96689850  0.56808688    -0.04500
C2249       C  0.08446049  0.95120773  0.55406935    -0.01700
C2250       C  0.09893255  0.93602072  0.55346068     0.03300
C2251       C  0.13219173  0.95127357  0.59614112     0.38000
C2252       C  0.06752718  0.95020329  0.54064253     0.38000
C2253       C  0.09771149  0.92071892  0.53823270     0.36400
C2254       C  0.10472157  0.98329929  0.59566052     0.36400
N2255       N  0.09679483  0.90857542  0.52602721    -0.38400
N2256       N  0.10673472  0.99629907  0.60681331    -0.38400
N2257       N  0.05400282  0.94934210  0.52996967    -0.37900
N2258       N  0.14474803  0.95108946  0.60795656    -0.37900
C2259       C  0.27062663  0.88948365  0.58559561    -0.04500
C2260       C  0.28656185  0.87895906  0.57678737    -0.01700
C2261       C  0.30634251  0.88255053  0.58298731     0.03300
C2262       C  0.31039186  0.89681020  0.59797639    -0.04500
C2263       C  0.29445733  0.90745278  0.60665387    -0.01700
C2264       C  0.27467405  0.90381351  0.60049532     0.03300
C2265       C  0.28267123  0.86462480  0.56104999     0.38000
C2266       C  0.29836547  0.92245799  0.62172833     0.38000
C2267       C  0.25846072  0.91440186  0.61005334     0.36400
C2268       C  0.32242054  0.87097566  0.57439074     0.36400
N2269       N  0.24555001  0.92287944  0.61767094    -0.38400
N2270       N  0.33518826  0.86168681  0.56751702    -0.38400
N2271       N  0.30142842  0.93439969  0.63379001    -0.37900
N2272       N  0.27957913  0.85320292  0.54849928    -0.37900
C2273       C  0.15424356  0.77794064  0.58998719    -0.04500
C2274       C  0.16480759  0.76170683  0.58172537    -0.01700
C2275       C  0.16094150  0.74219155  0.58828574     0.03300
C2276       C  0.14610020  0.73864634  0.60272090    -0.04500
C2277       C  0.13551238  0.75477833  0.61098230    -0.01700
C2278       C  0.13962012  0.77436952  0.60472317     0.03300
C2279       C  0.17944395  0.76493051  0.56615721     0.38000
C2280       C  0.12021185  0.75122636  0.62581659     0.38000
C2281       C  0.12928381  0.79083740  0.61409200     0.36400
C2282       C  0.17289297  0.72583420  0.58080379     0.36400
N2283       N  0.12102583  0.80394180  0.62160794    -0.38400
N2284       N  0.18253022  0.71281338  0.57498377    -0.38400
N2285       N  0.10803262  0.74841031  0.63767282    -0.37900
N2286       N  0.19113115  0.76741932  0.55374574    -0.37900
C2287       C  0.44436034  0.94811930  0.91283957    -0.04500
C2288       C  0.45764774  0.94720514  0.92922128    -0.01700
C2289       C  0.45817545  0.96265328  0.94354144     0.03300
C2290       C  0.44571632  0.97945011  0.94154180    -0.04500
C2291       C  0.43263449  0.98054225  0.92506019    -0.01700
C2292       C  0.43178577  0.96490549  0.91095114     0.03300
C2293       C  0.47127620  0.93061790  0.93120760     0.38000
C2294       C  0.42036799  0.99807004  0.92225306     0.38000
C2295       C  0.41736957  0.96590126  0.89488844     0.36400
C2296       C  0.47117324  0.96089200  0.96071815     0.36400
N2297       N  0.40579326  0.96678004  0.88214769    -0.38400
N2298       N  0.48150075  0.95947356  0.97443771    -0.38400
N2299       N  0.41065774  0.01209070  0.92002936    -0.37900
N2300       N  0.48216239  0.91740461  0.93286857    -0.37900
C2301       C  0.43590613  0.78752188  0.87513079    -0.04500
C2302       C  0.42009752  0.77788184  0.86499545    -0.01700
C2303       C  0.41467891  0.75817078  0.86988101     0.03300
C2304       C  0.42462740  0.74799306  0.88536663    -0.04500
C2305       C  0.44027423  0.75773900  0.89568446    -0.01700
C2306       C  0.44597856  0.77732209  0.89048285     0.03300
C2307       C  0.40893706  0.78841525  0.84983886     0.38000
C2308       C  0.45026319  0.74781844  0.91201827     0.38000
C2309       C  0.46266304  0.78673376  0.90056453     0.36400
C2310       C  0.39932881  0.74816608  0.85834005     0.36400
N2311       N  0.47604367  0.79416265  0.90856764    -0.38400
N2312       N  0.38713172  0.74020766  0.84905815    -0.38400
N2313       N  0.45820962  0.73990526  0.92506140    -0.37900
N2314       N  0.39999194  0.79682222  0.83779043    -0.37900
C2315       C  0.42505964  0.90250332  0.71572991    -0.04500
C2316       C  0.41869003  0.88489195  0.72531568    -0.01700
C2317       C  0.42386550  0.88123653  0.74537289     0.03300
C2318       C  0.43608717  0.89485272  0.75601966    -0.04500
C2319       C  0.44291735  0.91220012  0.74617412    -0.01700
C2320       C  0.43708062  0.91619298  0.72635381     0.03300
C2321       C  0.40713126  0.87016501  0.71442341     0.38000
C2322       C  0.45655217  0.92574709  0.75613371     0.38000
C2323       C  0.44281079  0.93487522  0.71719904     0.36400
C2324       C  0.41592739  0.86366324  0.75507777     0.36400
N2325       N  0.44725165  0.94985211  0.70997126    -0.38400
N2326       N  0.40954134  0.84958805  0.76267315    -0.38400
N2327       N  0.46751044  0.93654070  0.76398843    -0.37900
N2328       N  0.39793933  0.85839198  0.70575920    -0.37900
C2329       C  0.09683583  0.46947958  0.53238746    -0.04500
C2330       C  0.08411082  0.45294550  0.52945286    -0.01700
C2331       C  0.08229656  0.43826198  0.54429355     0.03300
C2332       C  0.09300484  0.44008562  0.56234027    -0.04500
C2333       C  0.10536036  0.45690163  0.56547725    -0.01700
C2334       C  0.10736800  0.47145276  0.55050406     0.03300
C2335       C  0.07351524  0.45049766  0.51078395     0.38000
C2336       C  0.11670829  0.45891428  0.58376156     0.38000
C2337       C  0.12019780  0.48857363  0.55383886     0.36400
C2338       C  0.06932476  0.42125762  0.54091688     0.36400
N2339       N  0.13046610  0.50219786  0.55647358    -0.38400
N2340       N  0.05908557  0.40764480  0.53811978    -0.38400
N2341       N  0.12574170  0.46056296  0.59835258    -0.37900
N2342       N  0.06504729  0.44838731  0.49592639    -0.37900
C2343       C  0.49350266  0.12884925  0.52007288    -0.04500
C2344       C  0.49874451  0.13825401  0.53814442    -0.01700
C2345       C  0.48427796  0.14106716  0.55309996     0.03300
C2346       C  0.46454513  0.13419209  0.55018927    -0.04500
C2347       C  0.45938365  0.12465192  0.53210758    -0.01700
C2348       C  0.47378882  0.12210948  0.51708323     0.03300
C2349       C  0.51919899  0.14449965  0.54157993     0.38000
C2350       C  0.43938179  0.11691673  0.52905281     0.38000
C2351       C  0.46812500  0.11299308  0.49831763     0.36400
C2352       C  0.48960214  0.15160018  0.57121618     0.36400
N2353       N  0.46342880  0.10577644  0.48338439    -0.38400
N2354       N  0.49385987  0.16008181  0.58561785    -0.38400
N2355       N  0.42343069  0.11077385  0.52657851    -0.37900
N2356       N  0.53554596  0.14935729  0.54430120    -0.37900
C2357       C  0.45621040  0.44524524  0.88743157    -0.04500
C2358       C  0.45557622  0.46437359  0.87869161    -0.01700
C2359       C  0.47106799  0.47819864  0.88224755     0.03300
C2360       C  0.48765889  0.47288968  0.89403662    -0.04500
C2361       C  0.48800473  0.45412191  0.90336685    -0.01700
C2362       C  0.47224463  0.44047096  0.90030839     0.03300
C2363       C  0.43952961  0.46967996  0.86525618     0.38000
C2364       C  0.50497599  0.44848729  0.91548821     0.38000
C2365       C  0.47247676  0.42161239  0.91075662     0.36400
C2366       C  0.46976063  0.49811376  0.87403412     0.36400
N2367       N  0.47268648  0.40657987  0.91910526    -0.38400
N2368       N  0.46871910  0.51404257  0.86763359    -0.38400
N2369       N  0.51853038  0.44396233  0.92510892    -0.37900
N2370       N  0.42679843  0.47402075  0.85449502    -0.37900
C2371       C  0.44485833  0.09269487  0.90664327    -0.04500
C2372       C  0.45627472  0.07509277  0.90516959    -0.01700
C2373       C  0.45682874  0.06154812  0.92114720     0.03300
C2374       C  0.44595664  0.06545746  0.93870679    -0.04500
C2375       C  0.43452323  0.08297966  0.94020625    -0.01700
C2376       C  0.43395684  0.09654193  0.92426429     0.03300
C2377       C  0.46776820  0.07097441  0.88735682     0.38000
C2378       C  0.42355782  0.08725818  0.95832884     0.38000
C2379       C  0.42151662  0.11409520  0.92585821     0.36400
C2380       C  0.46805603  0.04321125  0.91922402     0.36400
N2381       N  0.41160878  0.12809678  0.92719335    -0.38400
N2382       N  0.47696056  0.02856633  0.91772941    -0.38400
N2383       N  0.41480941  0.09065478  0.97277034    -0.37900
N2384       N  0.47691377  0.06758600  0.87316087    -0.37900
C2385       C  0.42719342  0.24675979  0.85538746    -0.04500
C2386       C  0.41371864  0.25298521  0.87024937    -0.01700
C2387       C  0.40989145  0.27339658  0.87308692     0.03300
C2388       C  0.41904304  0.28772931  0.86067370    -0.04500
C2389       C  0.43289225  0.28149721  0.84611108    -0.01700
C2390       C  0.43710592  0.26109936  0.84364832     0.03300
C2391       C  0.40291945  0.23837795  0.88193460     0.38000
C2392       C  0.44206727  0.29589382  0.83290542     0.38000
C2393       C  0.45173453  0.25485429  0.82903225     0.36400
C2394       C  0.39661672  0.27960153  0.88896066     0.36400
N2395       N  0.46344581  0.24986549  0.81742845    -0.38400
N2396       N  0.38604464  0.28453380  0.90163288    -0.38400
N2397       N  0.44935636  0.30732578  0.82229445    -0.37900
N2398       N  0.39419596  0.22675321  0.89117816    -0.37900
C2399       C  0.41972212  0.12686869  0.74712694    -0.04500
C2400       C  0.40582828  0.11271473  0.74002819    -0.01700
C2401       C  0.40354306  0.10962502  0.71938117     0.03300
C2402       C  0.41485032  0.12093468  0.70570526    -0.04500
C2403       C  0.42945246  0.13438332  0.71288285    -0.01700
C2404       C  0.43207844  0.13707134  0.73350193     0.03300
C2405       C  0.39313401  0.10205437  0.75386260     0.38000
C2406       C  0.44102586  0.14644157  0.69920191     0.38000
C2407       C  0.44760061  0.15038406  0.74068920     0.36400
C2408       C  0.38950287  0.09478572  0.71220262     0.36400
N2409       N  0.45999149  0.16096571  0.74642017    -0.38400
N2410       N  0.37834893  0.08291666  0.70646234    -0.38400
N2411       N  0.45026847  0.15614748  0.68838311    -0.37900
N2412       N  0.38295201  0.09356726  0.76486386    -0.37900
C2413       C  0.11587440  0.08598081  0.56795955    -0.04500
C2414       C  0.10061269  0.08617052  0.58247622    -0.01700
C2415       C  0.08622416  0.07083274  0.58302551     0.03300
C2416       C  0.08734345  0.05468275  0.56954630    -0.04500
C2417       C  0.10309575  0.05408144  0.55554452    -0.01700
C2418       C  0.11716943  0.06973404  0.55463834     0.03300
C2419       C  0.09987917  0.10196882  0.59722155     0.38000
C2420       C  0.10502292  0.03724012  0.54213140     0.38000
C2421       C  0.13250599  0.06941422  0.53943229     0.36400
C2422       C  0.06968277  0.07231107  0.59686178     0.36400
N2423       N  0.14469998  0.06912333  0.52726457    -0.38400
N2424       N  0.05644126  0.07358563  0.60781430    -0.38400
N2425       N  0.10655135  0.02381492  0.53143225    -0.37900
N2426       N  0.09931980  0.11452567  0.60901829    -0.37900
C2427       C  0.13649261  0.24622419  0.58322940    -0.04500
C2428       C  0.14392193  0.25481225  0.60095353    -0.01700
C2429       C  0.13690893  0.27347992  0.60742421     0.03300
C2430       C  0.12183840  0.28342205  0.59658895    -0.04500
C2431       C  0.11398741  0.27446778  0.57917083    -0.01700
C2432       C  0.12150093  0.25609765  0.57237833     0.03300
C2433       C  0.15847115  0.24421315  0.61287218     0.38000
C2434       C  0.09779646  0.28385086  0.56841931     0.38000
C2435       C  0.11424586  0.24768757  0.55382417     0.36400
C2436       C  0.14588869  0.28268491  0.62482557     0.36400
N2437       N  0.10853123  0.24105346  0.53896654    -0.38400
N2438       N  0.15315748  0.28994171  0.63869046    -0.38400
N2439       N  0.08486090  0.29130150  0.55984807    -0.37900
N2440       N  0.17000072  0.23572117  0.62241307    -0.37900
C2441       C  0.30703496  0.15080279  0.58679823    -0.04500
C2442       C  0.30050247  0.14244563  0.56855181    -0.01700
C2443       C  0.28035143  0.14407992  0.56273211     0.03300
C2444       C  0.26659009  0.15404273  0.57505456    -0.04500
C2445       C  0.27315479  0.16273350  0.59307237    -0.01700
C2446       C  0.29327407  0.16117469  0.59889128     0.03300
C2447       C  0.31427259  0.13156574  0.55598071     0.38000
C2448       C  0.25909676  0.17284792  0.60598902     0.38000
C2449       C  0.29981656  0.17067637  0.61719445     0.36400
C2450       C  0.27383437  0.13581607  0.54384376     0.36400
N2451       N  0.30496427  0.17824621  0.63181311    -0.38400
N2452       N  0.26864982  0.12928336  0.52875028    -0.38400
N2453       N  0.24790734  0.18093056  0.61628840    -0.37900
N2454       N  0.32521429  0.12291140  0.54588116    -0.37900
C2455       C  0.10555192  0.42032301  0.91409471    -0.04500
C2456       C  0.10835461  0.41004933  0.93220571    -0.01700
C2457       C  0.09491013  0.41276963  0.94808190     0.03300
C2458       C  0.07845443  0.42567294  0.94599403    -0.04500
C2459       C  0.07590107  0.43633502  0.92809782    -0.01700
C2460       C  0.08932959  0.43360388  0.91218036     0.03300
C2461       C  0.12449954  0.39588554  0.93428473     0.38000
C2462       C  0.05900545  0.44955210  0.92569970     0.38000
C2463       C  0.08640610  0.44459367  0.89385738     0.36400
C2464       C  0.09814115  0.40236682  0.96670752     0.36400
N2465       N  0.08398339  0.45326599  0.87920692    -0.38400
N2466       N  0.10067165  0.39409810  0.98157121    -0.38400
N2467       N  0.04556411  0.46012189  0.92375527    -0.37900
N2468       N  0.13733119  0.38454855  0.93598758    -0.37900
C2469       C  0.25777606  0.40381421  0.85335112    -0.04500
C2470       C  0.26846639  0.41463496  0.86798360    -0.01700
C2471       C  0.28874939  0.41048261  0.87165251     0.03300
C2472       C  0.29902848  0.39644684  0.85980794    -0.04500
C2473       C  0.28846063  0.38601174  0.84477457    -0.01700
C2474       C  0.26785981  0.38918266  0.84203801     0.03300
C2475       C  0.25885074  0.43054661  0.87896229     0.38000
C2476       C  0.29874423  0.37231806  0.83160211     0.38000
C2477       C  0.25700916  0.37668410  0.82806361     0.36400
C2478       C  0.29870511  0.42009599  0.88828285     0.36400
N2479       N  0.24843188  0.36661762  0.81696279    -0.38400
N2480       N  0.30653922  0.42767000  0.90166275    -0.38400
N2481       N  0.30680877  0.36139173  0.82100755    -0.37900
N2482       N  0.25126659  0.44331314  0.88768000    -0.37900
C2483       C  0.12773169  0.39531174  0.75422171    -0.04500
C2484       C  0.13425067  0.40696516  0.73796622    -0.01700
C2485       C  0.12635716  0.40366648  0.71879033     0.03300
C2486       C  0.11129273  0.38919824  0.71578157    -0.04500
C2487       C  0.10437821  0.37793583  0.73211911    -0.01700
C2488       C  0.11279812  0.38069939  0.75114936     0.03300
C2489       C  0.14878840  0.42274454  0.74091912     0.38000
C2490       C  0.08831980  0.36363379  0.72946523     0.38000
C2491       C  0.10655088  0.36785077  0.76732496     0.36400
C2492       C  0.13449098  0.41463848  0.70207797     0.36400
N2493       N  0.10153204  0.35752739  0.78014427    -0.38400
N2494       N  0.14109445  0.42339098  0.68881038    -0.38400
N2495       N  0.07550088  0.35225217  0.72737613    -0.37900
N2496       N  0.16037067  0.43534340  0.74321395    -0.37900
C2497       C  0.61137863  0.11293536  0.54676972    -0.04500
C2498       C  0.61237485  0.12781155  0.53198103    -0.01700
C2499       C  0.59692171  0.12974957  0.51783893     0.03300
C2500       C  0.57992474  0.11716829  0.51862516    -0.04500
C2501       C  0.57867989  0.10271942  0.53391244    -0.01700
C2502       C  0.59447448  0.10037106  0.54760560     0.03300
C2503       C  0.62904219  0.14163314  0.53160857     0.38000
C2504       C  0.56085706  0.09062296  0.53613734     0.38000
C2505       C  0.59355379  0.08450549  0.56218603     0.36400
C2506       C  0.59892114  0.14450185  0.50223012     0.36400
N2507       N  0.59284904  0.07178999  0.57373975    -0.38400
N2508       N  0.60056169  0.15630497  0.48983020    -0.38400
N2509       N  0.54663425  0.08101913  0.53801904    -0.37900
N2510       N  0.64228624  0.15270561  0.53130952    -0.37900
C2511       C  0.96888621  0.43724563  0.56238593    -0.04500
C2512       C  0.95224478  0.44923638  0.55819497    -0.01700
C2513       C  0.95330497  0.46410547  0.54342052     0.03300
C2514       C  0.97121109  0.46720633  0.53239809    -0.04500
C2515       C  0.98770920  0.45447705  0.53632156    -0.01700
C2516       C  0.98653188  0.43979566  0.55133468     0.03300
C2517       C  0.93369747  0.44591088  0.56884097     0.38000
C2518       C  0.00590659  0.45585748  0.52474090     0.38000
C2519       C  0.00373549  0.42754774  0.55580464     0.36400
C2520       C  0.93567076  0.47605254  0.53989751     0.36400
N2521       N  0.01743873  0.41781173  0.55948242    -0.38400
N2522       N  0.92147929  0.48541053  0.53716477    -0.38400
N2523       N  0.02049190  0.45678836  0.51559837    -0.37900
N2524       N  0.91889471  0.44321363  0.57725805    -0.37900
C2525       C  0.60585767  0.43684370  0.89634909    -0.04500
C2526       C  0.60801173  0.45364813  0.90887779    -0.01700
C2527       C  0.59348739  0.46876566  0.90884053     0.03300
C2528       C  0.57648597  0.46713627  0.89648972    -0.04500
C2529       C  0.57428587  0.45036746  0.88396606    -0.01700
C2530       C  0.58881445  0.43521265  0.88399632     0.03300
C2531       C  0.62485416  0.45515633  0.92237563     0.38000
C2532       C  0.55690285  0.44852248  0.87121498     0.38000
C2533       C  0.58629149  0.41814268  0.87097027     0.36400
C2534       C  0.59647965  0.48639862  0.92102179     0.36400
N2535       N  0.58415578  0.40448711  0.86065559    -0.38400
N2536       N  0.59891117  0.50048765  0.93066609    -0.38400
N2537       N  0.54308314  0.44709679  0.86098597    -0.37900
N2538       N  0.63825007  0.45635802  0.93317826    -0.37900
C2539       C  0.96220110  0.42345818  0.91586835    -0.04500
C2540       C  0.98003818  0.41234757  0.91424375    -0.01700
C2541       C  0.99529566  0.41460372  0.92850323     0.03300
C2542       C  0.99263005  0.42730681  0.94504052    -0.04500
C2543       C  0.97505638  0.43873645  0.94653703    -0.01700
C2544       C  0.95992841  0.43687256  0.93199694     0.03300
C2545       C  0.98250619  0.39783291  0.89842042     0.38000
C2546       C  0.97229018  0.45211797  0.96327959     0.38000
C2547       C  0.94219635  0.44907249  0.93357705     0.36400
C2548       C  0.01409360  0.40428314  0.92577686     0.36400
N2549       N  0.92805435  0.45879740  0.93494132    -0.38400
N2550       N  0.02914506  0.39621537  0.92354191    -0.38400
N2551       N  0.97010917  0.46283822  0.97659631    -0.37900
N2552       N  0.98453626  0.38619937  0.88586742    -0.37900
C2553       C  0.92242750  0.40939218  0.75800302    -0.04500
C2554       C  0.91174337  0.39536962  0.74638604    -0.01700
C2555       C  0.91813780  0.39058511  0.72697019     0.03300
C2556       C  0.93542907  0.39957856  0.71890574    -0.04500
C2557       C  0.94590944  0.41388173  0.73032968    -0.01700
C2558       C  0.93948990  0.41871796  0.74977947     0.03300
C2559       C  0.89453851  0.38512364  0.75457109     0.38000
C2560       C  0.96369144  0.42326121  0.72235452     0.38000
C2561       C  0.95040014  0.43353243  0.76119274     0.36400
C2562       C  0.90652574  0.37661262  0.71517685     0.36400
N2563       N  0.95918170  0.44529687  0.77028317    -0.38400
N2564       N  0.89725230  0.36542707  0.70584834    -0.38400
N2565       N  0.97785638  0.43080991  0.71603230    -0.37900
N2566       N  0.88078597  0.37693071  0.76099759    -0.37900
C2567       C  0.80401909  0.40589435  0.86954814    -0.04500
C2568       C  0.79368046  0.41591455  0.88489524    -0.01700
C2569       C  0.77393625  0.41041883  0.88973447     0.03300
C2570       C  0.76418252  0.39507560  0.87904999    -0.04500
C2571       C  0.77446312  0.38517499  0.86356971    -0.01700
C2572       C  0.79429382  0.39046457  0.85893738     0.03300
C2573       C  0.80313855  0.43228136  0.89542775     0.38000
C2574       C  0.76456941  0.36977469  0.85200354     0.38000
C2575       C  0.80483809  0.37949845  0.84360268     0.36400
C2576       C  0.76393100  0.42012409  0.90623203     0.36400
N2577       N  0.81320623  0.37073208  0.83136434    -0.38400
N2578       N  0.75596416  0.42779708  0.91943533    -0.38400
N2579       N  0.75675626  0.35745551  0.84277139    -0.37900
N2580       N  0.81060272  0.44538747  0.90382152    -0.37900
C2581       C  0.97069001  0.08490202  0.57254846    -0.04500
C2582       C  0.98747674  0.08697573  0.56001831    -0.01700
C2583       C  0.00241560  0.07223705  0.55974578     0.03300
C2584       C  0.00062347  0.05515093  0.57185197    -0.04500
C2585       C  0.98387480  0.05313589  0.58447573    -0.01700
C2586       C  0.96898770  0.06793381  0.58480973     0.03300
C2587       C  0.98915643  0.10403056  0.54693236     0.38000
C2588       C  0.98166526  0.03561121  0.59685753     0.38000
C2589       C  0.95215728  0.06589405  0.59820843     0.36400
C2590       C  0.01998928  0.07504308  0.54746739     0.36400
N2591       N  0.93874396  0.06425853  0.60890492    -0.38400
N2592       N  0.03404113  0.07729975  0.53774070    -0.38400
N2593       N  0.97992257  0.02165753  0.60676086    -0.37900
N2594       N  0.99048509  0.11760426  0.53645799    -0.37900
C2595       C  0.92963822  0.24185880  0.59741155    -0.04500
C2596       C  0.91740687  0.25287550  0.61057162    -0.01700
C2597       C  0.92220072  0.27278261  0.61544663     0.03300
C2598       C  0.93976460  0.28172421  0.60793541    -0.04500
C2599       C  0.95250999  0.27042422  0.59559794    -0.01700
C2600       C  0.94734213  0.25076041  0.59009204     0.03300
C2601       C  0.90028111  0.24352676  0.61990548     0.38000
C2602       C  0.97141671  0.27874094  0.58915043     0.38000
C2603       C  0.96018255  0.23995697  0.57651188     0.36400
C2604       C  0.90864843  0.28415859  0.62782749     0.36400
N2605       N  0.97053778  0.23142518  0.56571319    -0.38400
N2606       N  0.89776725  0.29315240  0.63769215    -0.38400
N2607       N  0.98655923  0.28532812  0.58414528    -0.37900
N2608       N  0.88669620  0.23606787  0.62747222    -0.37900
C2609       C  0.81267721  0.12938818  0.57581185    -0.04500
C2610       C  0.79746221  0.13811691  0.56424335    -0.01700
C2611       C  0.77719135  0.13421329  0.56849830     0.03300
C2612       C  0.77191021  0.12135543  0.58431526    -0.04500
C2613       C  0.78721824  0.11192220  0.59528488    -0.01700
C2614       C  0.80744570  0.11602643  0.59116413     0.03300
C2615       C  0.80267398  0.15097074  0.54772196     0.38000
C2616       C  0.78226263  0.09769646  0.61073551     0.38000
C2617       C  0.82281416  0.10705336  0.60338139     0.36400
C2618       C  0.76187487  0.14416110  0.55702162     0.36400
N2619       N  0.83501847  0.09986746  0.61316367    -0.38400
N2620       N  0.74973169  0.15212435  0.54778352    -0.38400
N2621       N  0.77836225  0.08637798  0.62309027    -0.37900
N2622       N  0.80682959  0.16116893  0.53450597    -0.37900
C2623       C  0.62200886  0.08373912  0.89977787    -0.04500
C2624       C  0.63418479  0.06655364  0.89904087    -0.01700
C2625       C  0.63329018  0.05226708  0.91439332     0.03300
C2626       C  0.62058001  0.05514832  0.93090361    -0.04500
C2627       C  0.60841882  0.07224044  0.93169379    -0.01700
C2628       C  0.60888263  0.08627733  0.91612179     0.03300
C2629       C  0.64826336  0.06372607  0.88291291     0.38000
C2630       C  0.59590959  0.07584559  0.94895013     0.38000
C2631       C  0.59539244  0.10309774  0.91689125     0.36400
C2632       C  0.64521662  0.03433734  0.91293115     0.36400
N2633       N  0.58461315  0.11648642  0.91765549    -0.38400
N2634       N  0.65468926  0.02002733  0.91172358    -0.38400
N2635       N  0.58600805  0.07872683  0.96274644    -0.37900
N2636       N  0.65950879  0.06134306  0.87008110    -0.37900
C2637       C  0.63924468  0.24163034  0.86418303    -0.04500
C2638       C  0.63042560  0.25795743  0.85436363    -0.01700
C2639       C  0.63582833  0.27757677  0.85957615     0.03300
C2640       C  0.64915229  0.28108938  0.87551451    -0.04500
C2641       C  0.65723768  0.26479837  0.88596910    -0.01700
C2642       C  0.65261210  0.24516580  0.88011932     0.03300
C2643       C  0.61522194  0.25463066  0.83933254     0.38000
C2644       C  0.67010921  0.26818951  0.90302548     0.38000
C2645       C  0.66222985  0.22871553  0.89018813     0.36400
C2646       C  0.62843202  0.29404120  0.84779545     0.36400
N2647       N  0.66995241  0.21567443  0.89830095    -0.38400
N2648       N  0.62266451  0.30710230  0.83822353    -0.38400
N2649       N  0.68033462  0.27090882  0.91664492    -0.37900
N2650       N  0.60293903  0.25198362  0.82750927    -0.37900
C2651       C  0.65084849  0.13188867  0.74362488    -0.04500
C2652       C  0.64117132  0.11616645  0.73331692    -0.01700
C2653       C  0.64579858  0.11214296  0.71319317     0.03300
C2654       C  0.65961686  0.12419599  0.70284229    -0.04500
C2655       C  0.66889980  0.14021518  0.71294589    -0.01700
C2656       C  0.66499910  0.14368262  0.73329604     0.03300
C2657       C  0.62594182  0.10435732  0.74309893     0.38000
C2658       C  0.68192681  0.15376207  0.70225449     0.38000
C2659       C  0.67624418  0.15903156  0.74363261     0.36400
C2660       C  0.63660964  0.09520894  0.70332813     0.36400
N2661       N  0.68533159  0.17127209  0.75174264    -0.38400
N2662       N  0.62927595  0.08167651  0.69551614    -0.38400
N2663       N  0.69222011  0.16464834  0.69373718    -0.37900
N2664       N  0.61378044  0.09486529  0.75079910    -0.37900
loop_ 
_geom_bond_atom_site_label_1 
_geom_bond_atom_site_label_2 
_geom_bond_distance 
_geom_bond_site_symmetry_2 
_ccdc_geom_bond_type 
N1            N2   1.321       .  A
N1            C5   1.342       .  A
N1           Cu9   2.064       .  S
N2            C3   1.347       .  A
N2           Cu8   2.087       .  S
C3            C4   1.391       .  A
C3            H6   1.081       .  S
C4            C5   1.385       .  A
C4         C2623   1.498       .  S
C5            H7   1.081       .  S
Cu8          N11   2.087       .  S
Cu9          N19   2.063       .  S
Cu10         N12   2.073       .  S
Cu10         N18   2.073       .  S
N11          N12   1.322       .  A
N11          C15   1.347       .  A
N12          C13   1.344       .  A
C13          C14   1.387       .  A
C13          H16   1.081       .  S
C14          C15   1.390       .  A
C14        C2651   1.499       .  S
C15          H17   1.081       .  S
N18          N19   1.321       .  A
N18          C22   1.344       .  A
N19          C20   1.344       .  A
C20          C21   1.384       .  A
C20          H23   1.082       .  S
C21          C22   1.385       .  A
C21        C2637   1.488       .  S
C22          H24   1.082       .  S
N25          N26   1.322       .  A
N25          C29   1.345       .  A
N25         Cu33   2.076       .  S
N26          C27   1.346       .  A
N26         Cu32   2.077       .  S
C27          C28   1.385       .  A
C27          H30   1.081       .  S
C28          C29   1.384       .  A
C28        C2581   1.489       .  S
C29          H31   1.081       .  S
Cu32         N35   2.077       .  S
Cu33         N43   2.076       .  S
Cu34         N36   2.083       .  S
Cu34         N42   2.083       .  S
N35          N36   1.323       .  A
N35          C39   1.346       .  A
N36          C37   1.346       .  A
C37          C38   1.385       .  A
C37          H40   1.082       .  S
C38          C39   1.385       .  A
C38        C2609   1.491       .  S
C39          H41   1.082       .  S
N42          N43   1.321       .  A
N42          C46   1.346       .  A
N43          C44   1.346       .  A
C44          C45   1.387       .  A
C44          H47   1.081       .  S
C45          C46   1.389       .  A
C45        C2595   1.498       .  S
C46          H48   1.081       .  S
N49          N50   1.323       .  A
N49          C53   1.345       .  A
N49         Cu57   2.081       .  S
N50          C51   1.346       .  A
N50         Cu56   2.080       .  S
C51          C52   1.384       .  A
C51          H54   1.082       .  S
C52          C53   1.385       .  A
C52        C2567   1.490       .  S
C53          H55   1.082       .  S
Cu56         N59   2.079       .  S
Cu57         N67   2.081       .  S
Cu58         N60   2.066       .  S
Cu58         N66   2.066       .  S
N59          N60   1.321       .  A
N59          C63   1.347       .  A
N60          C61   1.342       .  A
C61          C62   1.384       .  A
C61          H64   1.082       .  S
C62          C63   1.389       .  A
C62        C2539   1.493       .  S
C63          H65   1.082       .  S
N66          N67   1.320       .  A
N66          C70   1.344       .  A
N67          C68   1.346       .  A
C68          C69   1.389       .  A
C68          H71   1.081       .  S
C69          C70   1.385       .  A
C69        C2553   1.494       .  S
C70          H72   1.082       .  S
N73          N74   1.322       .  A
N73          C77   1.345       .  A
N73         Cu81   2.067       .  S
N74          C75   1.344       .  A
N74         Cu80   2.078       .  S
C75          C76   1.386       .  A
C75          H78   1.082       .  S
C76          C77   1.384       .  A
C76        C2525   1.490       .  S
C77          H79   1.081       .  S
Cu80         N83   2.078       .  S
Cu81         N91   2.067       .  S
Cu82         N84   2.068       .  S
Cu82         N90   2.069       .  S
N83          N84   1.322       .  A
N83          C87   1.345       .  A
N84          C85   1.344       .  A
C85          C86   1.384       .  A
C85          H88   1.082       .  S
C86          C87   1.386       .  A
C86        C2570   1.490       .  S
C87          H89   1.082       .  S
N90          N91   1.322       .  A
N90          C94   1.344       .  A
N91          C92   1.344       .  A
C92          C93   1.383       .  A
C92          H95   1.082       .  S
C93          C94   1.384       .  A
C93        C2640   1.485       .  S
C94          H96   1.082       .  S
N97          N98   1.322       .  A
N97         C101   1.347       .  A
N97        Cu105   2.088       .  S
N98          C99   1.345       .  A
N98        Cu104   2.072       .  S
C99         C100   1.384       .  A
C99         H102   1.082       .  S
C100        C101   1.388       .  A
C100       C2598   1.494       .  S
C101        H103   1.082       .  S
Cu104       N107   2.071       .  S
Cu105       N115   2.088       .  S
Cu106       N108   2.081       .  S
Cu106       N114   2.082       .  S
N107        N108   1.321       .  A
N107        C111   1.343       .  A
N108        C109   1.348       .  A
C109        C110   1.388       .  A
C109        H112   1.081       .  S
C110        C111   1.385       .  A
C110       C2556   1.493       .  S
C111        H113   1.081       .  S
N114        N115   1.324       .  A
N114        C118   1.346       .  A
N115        C116   1.348       .  A
C116        C117   1.384       .  A
C116        H119   1.082       .  S
C117        C118   1.383       .  A
C117       C2511   1.488       .  S
C118        H120   1.082       .  S
N121        N122   1.322       .  A
N121        C125   1.348       .  A
N121       Cu129   2.082       .  S
N122        C123   1.343       .  A
N122       Cu128   2.073       .  S
C123        C124   1.385       .  A
C123        H126   1.082       .  S
C124        C125   1.389       .  A
C124       C2612   1.495       .  S
C125        H127   1.082       .  S
Cu128       N131   2.073       .  S
Cu129       N139   2.082       .  S
Cu130       N132   2.076       .  S
Cu130       N138   2.076       .  S
N131        N132   1.321       .  A
N131        C135   1.344       .  A
N132        C133   1.346       .  A
C133        C134   1.387       .  A
C133        H136   1.082       .  S
C134        C135   1.386       .  A
C134       C2654   1.494       .  S
C135        H137   1.081       .  S
N138        N139   1.323       .  A
N138        C142   1.345       .  A
N139        C140   1.346       .  A
C140        C141   1.386       .  A
C140        H143   1.081       .  S
C141        C142   1.384       .  A
C141       C2497   1.491       .  S
C142        H144   1.082       .  S
N145        N146   1.321       .  A
N145        C149   1.344       .  A
N145       Cu153   2.070       .  S
N146        C147   1.343       .  A
N146       Cu152   2.063       .  S
C147        C148   1.384       .  A
C147        H150   1.081       .  S
C148        C149   1.386       .  A
C148       C2483   1.489       .  S
C149        H151   1.081       .  S
Cu152       N155   2.063       .  S
Cu153       N163   2.070       .  S
Cu154       N156   2.073       .  S
Cu154       N162   2.073       .  S
N155        N156   1.321       .  A
N155        C159   1.343       .  A
N156        C157   1.345       .  A
C157        C158   1.386       .  A
C157        H160   1.082       .  S
C158        C159   1.384       .  A
C158       C2455   1.488       .  S
C159        H161   1.081       .  S
N162        N163   1.321       .  A
N162        C166   1.344       .  A
N163        C164   1.344       .  A
C164        C165   1.386       .  A
C164        H167   1.081       .  S
C165        C166   1.386       .  A
C165       C2469   1.493       .  S
C166        H168   1.082       .  S
N169        N170   1.323       .  A
N169        C173   1.342       .  A
N169       Cu177   2.070       .  S
N170        C171   1.348       .  A
N170       Cu176   2.085       .  S
C171        C172   1.387       .  A
C171        H174   1.082       .  S
C172        C173   1.382       .  A
C172       C2413   1.491       .  S
C173        H175   1.081       .  S
Cu176       N179   2.085       .  S
Cu177       N187   2.069       .  S
Cu178       N180   2.061       .  S
Cu178       N186   2.061       .  S
N179        N180   1.323       .  A
N179        C183   1.347       .  A
N180        C181   1.342       .  A
C181        C182   1.380       .  A
C181        H184   1.082       .  S
C182        C183   1.385       .  A
C182       C2444   1.483       .  S
C183        H185   1.081       .  S
N186        N187   1.320       .  A
N186        C190   1.343       .  A
N187        C188   1.345       .  A
C188        C189   1.384       .  A
C188        H191   1.081       .  S
C189        C190   1.382       .  A
C189       C2427   1.483       .  S
C190        H192   1.082       .  S
N193        N194   1.323       .  A
N193        C197   1.343       .  A
N193       Cu201   2.074       .  S
N194        C195   1.345       .  A
N194       Cu200   2.075       .  S
C195        C196   1.384       .  A
C195        H198   1.082       .  S
C196        C197   1.384       .  A
C196       C2371   1.488       .  S
C197        H199   1.082       .  S
Cu200       N203   2.074       .  S
Cu201       N211   2.073       .  S
Cu202       N204   2.059       .  S
Cu202       N210   2.059       .  S
N203        N204   1.321       .  A
N203        C207   1.347       .  A
N204        C205   1.340       .  A
C205        C206   1.381       .  A
C205        H208   1.082       .  S
C206        C207   1.385       .  A
C206       C2399   1.484       .  S
C207        H209   1.081       .  S
N210        N211   1.321       .  A
N210        C214   1.342       .  A
N211        C212   1.346       .  A
C212        C213   1.385       .  A
C212        H215   1.082       .  S
C213        C214   1.380       .  A
C213       C2385   1.483       .  S
C214        H216   1.082       .  S
N217        N218   1.320       .  A
N217        C221   1.346       .  A
N217       Cu225   2.073       .  S
N218        C219   1.341       .  A
N218       Cu224   2.059       .  S
C219        C220   1.382       .  A
C219        H222   1.082       .  S
C220        C221   1.387       .  A
C220       C2388   1.486       .  S
C221        H223   1.081       .  S
Cu224       N227   2.059       .  S
Cu225       N235   2.073       .  S
Cu226       N228   2.086       .  S
Cu226       N234   2.087       .  S
N227        N228   1.321       .  A
N227        C231   1.342       .  A
N228        C229   1.347       .  A
C229        C230   1.390       .  A
C229        H232   1.082       .  S
C230        C231   1.383       .  A
C230       C2472   1.494       .  S
C231        H233   1.081       .  S
N234        N235   1.323       .  A
N234        C238   1.348       .  A
N235        C236   1.343       .  A
C236        C237   1.384       .  A
C236        H239   1.082       .  S
C237        C238   1.389       .  A
C237       C2357   1.495       .  S
C238        H240   1.081       .  S
N241        N242   1.322       .  A
N241        C245   1.345       .  A
N241       Cu249   2.070       .  S
N242        C243   1.343       .  A
N242       Cu248   2.068       .  S
C243        C244   1.383       .  A
C243        H246   1.082       .  S
C244        C245   1.385       .  A
C244       C2402   1.486       .  S
C245        H247   1.081       .  S
Cu248       N251   2.068       .  S
Cu249       N259   2.071       .  S
Cu250       N252   2.069       .  S
Cu250       N258   2.069       .  S
N251        N252   1.321       .  A
N251        C255   1.343       .  A
N252        C253   1.345       .  A
C253        C254   1.385       .  A
C253        H256   1.082       .  S
C254        C255   1.385       .  A
C254       C2441   1.489       .  S
C255        H257   1.082       .  S
N258        N259   1.322       .  A
N258        C262   1.343       .  A
N259        C260   1.345       .  A
C260        C261   1.384       .  A
C260        H263   1.081       .  S
C261        C262   1.383       .  A
C261       C2346   1.485       .  S
C262        H264   1.082       .  S
N265        N266   1.320       .  A
N265        C269   1.344       .  A
N265       Cu273   2.068       .  S
N266        C267   1.343       .  A
N266       Cu272   2.061       .  S
C267        C268   1.385       .  A
C267        H270   1.082       .  S
C268        C269   1.386       .  A
C268       C2430   1.489       .  S
C269        H271   1.082       .  S
Cu272       N275   2.062       .  S
Cu273       N283   2.069       .  S
Cu274       N276   2.077       .  S
Cu274       N282   2.077       .  S
N275        N276   1.322       .  A
N275        C279   1.341       .  A
N276        C277   1.346       .  A
C277        C278   1.386       .  A
C277        H280   1.081       .  S
C278        C279   1.381       .  A
C278       C2486   1.487       .  S
C279        H281   1.082       .  S
N282        N283   1.322       .  A
N282        C286   1.346       .  A
N283        C284   1.342       .  A
C284        C285   1.382       .  A
C284        H287   1.082       .  S
C285        C286   1.386       .  A
C285       C2332   1.488       .  S
C286        H288   1.081       .  S
N289        N290   1.323       .  A
N289        C293   1.348       .  A
N289       Cu297   2.090       .  S
N290        C291   1.347       .  A
N290       Cu296   2.087       .  S
C291        C292   1.388       .  A
C291        H294   1.082       .  S
C292        C293   1.389       .  A
C292       C2287   1.501       .  S
C293        H295   1.081       .  S
Cu296       N299   2.087       .  S
Cu297       N307   2.090       .  S
Cu298       N300   2.082       .  S
Cu298       N306   2.081       .  S
N299        N300   1.323       .  A
N299        C303   1.348       .  A
N300        C301   1.346       .  A
C301        C302   1.385       .  A
C301        H304   1.082       .  S
C302        C303   1.386       .  A
C302       C2301   1.493       .  S
C303        H305   1.082       .  S
N306        N307   1.322       .  A
N306        C310   1.346       .  A
N307        C308   1.347       .  A
C308        C309   1.390       .  A
C308        H311   1.082       .  S
C309        C310   1.389       .  A
C309       C2318   1.502       .  S
C310        H312   1.081       .  S
N313        N314   1.320       .  A
N313        C317   1.346       .  A
N313       Cu321   2.075       .  S
N314        C315   1.341       .  A
N314       Cu320   2.054       .  S
C315        C316   1.381       .  A
C315        H318   1.082       .  S
C316        C317   1.387       .  A
C316       C2259   1.485       .  S
C317        H319   1.082       .  S
Cu320       N323   2.053       .  S
Cu321       N331   2.076       .  S
Cu322       N324   2.079       .  S
Cu322       N330   2.080       .  S
N323        N324   1.321       .  A
N323        C327   1.340       .  A
N324        C325   1.347       .  A
C325        C326   1.388       .  A
C325        H328   1.081       .  S
C326        C327   1.380       .  A
C326       C2273   1.487       .  S
C327        H329   1.082       .  S
N330        N331   1.324       .  A
N330        C334   1.346       .  A
N331        C332   1.345       .  A
C332        C333   1.383       .  A
C332        H335   1.082       .  S
C333        C334   1.384       .  A
C333       C2245   1.488       .  S
C334        H336   1.082       .  S
N337        N338   1.322       .  A
N337        C341   1.343       .  A
N337       Cu345   2.066       .  S
N338        C339   1.344       .  A
N338       Cu344   2.074       .  S
C339        C340   1.385       .  A
C339        H342   1.081       .  S
C340        C341   1.383       .  A
C340       C2231   1.486       .  S
C341        H343   1.081       .  S
Cu344       N347   2.074       .  S
Cu345       N355   2.066       .  S
Cu346       N348   2.072       .  S
Cu346       N354   2.072       .  S
N347        N348   1.322       .  A
N347        C351   1.345       .  A
N348        C349   1.345       .  A
C349        C350   1.384       .  A
C349        H352   1.082       .  S
C350        C351   1.385       .  A
C350       C2220   1.489       .  S
C351        H353   1.082       .  S
N354        N355   1.322       .  A
N354        C358   1.344       .  A
N355        C356   1.344       .  A
C356        C357   1.383       .  A
C356        H359   1.082       .  S
C357        C358   1.384       .  A
C357       C2203   1.485       .  S
C358        H360   1.081       .  S
N361        N362   1.322       .  A
N361        C365   1.344       .  A
N361       Cu369   2.069       .  S
N362        C363   1.345       .  A
N362       Cu368   2.083       .  S
C363        C364   1.389       .  A
C363        H366   1.082       .  S
C364        C365   1.385       .  A
C364       C2217   1.495       .  S
C365        H367   1.081       .  S
Cu368       N371   2.084       .  S
Cu369       N379   2.069       .  S
Cu370       N372   2.079       .  S
Cu370       N378   2.078       .  S
N371        N372   1.322       .  A
N371        C375   1.347       .  A
N372        C373   1.346       .  A
C373        C374   1.386       .  A
C373        H376   1.082       .  S
C374        C375   1.387       .  A
C374       C2304   1.495       .  S
C375        H377   1.081       .  S
N378        N379   1.322       .  A
N378        C382   1.346       .  A
N379        C380   1.344       .  A
C380        C381   1.384       .  A
C380        H383   1.082       .  S
C381        C382   1.386       .  A
C381       C2189   1.489       .  S
C382        H384   1.081       .  S
N385        N386   1.322       .  A
N385        C389   1.344       .  A
N385       Cu393   2.071       .  S
N386        C387   1.344       .  A
N386       Cu392   2.067       .  S
C387        C388   1.381       .  A
C387        H390   1.082       .  S
C388        C389   1.382       .  A
C388       C2234   1.481       .  S
C389        H391   1.082       .  S
Cu392       N395   2.067       .  S
Cu393       N403   2.071       .  S
Cu394       N396   2.068       .  S
Cu394       N402   2.068       .  S
N395        N396   1.322       .  A
N395        C399   1.345       .  A
N396        C397   1.343       .  A
C397        C398   1.381       .  A
C397        H400   1.082       .  S
C398        C399   1.382       .  A
C398       C2276   1.481       .  S
C399        H401   1.082       .  S
N402        N403   1.321       .  A
N402        C406   1.344       .  A
N403        C404   1.344       .  A
C404        C405   1.385       .  A
C404        H407   1.082       .  S
C405        C406   1.385       .  A
C405       C2175   1.489       .  S
C406        H408   1.082       .  S
N409        N410   1.322       .  A
N409        C413   1.345       .  A
N409       Cu417   2.079       .  S
N410        C411   1.344       .  A
N410       Cu416   2.064       .  S
C411        C412   1.382       .  A
C411        H414   1.081       .  S
C412        C413   1.386       .  A
C412       C2262   1.487       .  S
C413        H415   1.082       .  S
Cu416       N419   2.064       .  S
Cu417       N427   2.079       .  S
Cu418       N420   2.090       .  S
Cu418       N426   2.091       .  S
N419        N420   1.322       .  A
N419        C423   1.345       .  A
N420        C421   1.346       .  A
C421        C422   1.388       .  A
C421        H424   1.082       .  S
C422        C423   1.383       .  A
C422       C2161   1.491       .  S
C423        H425   1.081       .  S
N426        N427   1.323       .  A
N426        C430   1.348       .  A
N427        C428   1.346       .  A
C428        C429   1.386       .  A
C428        H431   1.081       .  S
C429        C430   1.388       .  A
C429       C2315   1.497       .  S
C430        H432   1.081       .  S
N433        N434   1.322       .  A
N433        C437   1.343       .  A
N433       Cu441   2.070       .  S
N434        C435   1.348       .  A
N434       Cu440   2.091       .  S
C435        C436   1.390       .  A
C435        H438   1.082       .  S
C436        C437   1.385       .  A
C436       C2119   1.497       .  S
C437        H439   1.081       .  S
Cu440       N443   2.092       .  S
Cu441       N451   2.069       .  S
Cu442       N444   2.079       .  S
Cu442       N450   2.078       .  S
N443        N444   1.321       .  A
N443        C447   1.347       .  A
N444        C445   1.346       .  A
C445        C446   1.390       .  A
C445        H448   1.081       .  S
C446        C447   1.392       .  A
C446       C2133   1.506       .  S
C447        H449   1.081       .  S
N450        N451   1.321       .  A
N450        C454   1.344       .  A
N451        C452   1.346       .  A
C452        C453   1.387       .  A
C452        H455   1.081       .  S
C453        C454   1.387       .  A
C453       C2147   1.494       .  S
C454        H456   1.082       .  S
N457        N458   1.321       .  A
N457        C461   1.343       .  A
N457       Cu465   2.070       .  S
N458        C459   1.346       .  A
N458       Cu464   2.077       .  S
C459        C460   1.389       .  A
C459        H462   1.081       .  S
C460        C461   1.385       .  A
C460       C2077   1.494       .  S
C461        H463   1.081       .  S
Cu464       N467   2.077       .  S
Cu465       N475   2.070       .  S
Cu466       N468   2.079       .  S
Cu466       N474   2.079       .  S
N467        N468   1.323       .  A
N467        C471   1.346       .  A
N468        C469   1.345       .  A
C469        C470   1.384       .  A
C469        H472   1.082       .  S
C470        C471   1.384       .  A
C470       C2105   1.487       .  S
C471        H473   1.082       .  S
N474        N475   1.321       .  A
N474        C478   1.345       .  A
N475        C476   1.345       .  A
C476        C477   1.385       .  A
C476        H479   1.082       .  S
C477        C478   1.387       .  A
C477       C2091   1.492       .  S
C478        H480   1.082       .  S
N481        N482   1.322       .  A
N481        C485   1.347       .  A
N481       Cu489   2.083       .  S
N482        C483   1.345       .  A
N482       Cu488   2.074       .  S
C483        C484   1.384       .  A
C483        H486   1.082       .  S
C484        C485   1.388       .  A
C484       C2049   1.492       .  S
C485        H487   1.082       .  S
Cu488       N491   2.074       .  S
Cu489       N499   2.083       .  S
Cu490       N492   2.084       .  S
Cu490       N498   2.084       .  S
N491        N492   1.322       .  A
N491        C495   1.345       .  A
N492        C493   1.347       .  A
C493        C494   1.388       .  A
C493        H496   1.081       .  S
C494        C495   1.385       .  A
C494       C2063   1.494       .  S
C495        H497   1.081       .  S
N498        N499   1.323       .  A
N498        C502   1.346       .  A
N499        C500   1.346       .  A
C500        C501   1.386       .  A
C500        H503   1.082       .  S
C501        C502   1.386       .  A
C501       C2035   1.494       .  S
C502        H504   1.082       .  S
N505        N506   1.322       .  A
N505        C509   1.350       .  A
N505       Cu513   2.098       .  S
N506        C507   1.344       .  A
N506       Cu512   2.066       .  S
C507        C508   1.381       .  A
C507        H510   1.082       .  S
C508        C509   1.390       .  A
C508       C2066   1.492       .  S
C509        H511   1.082       .  S
Cu512       N515   2.066       .  S
Cu513       N523   2.099       .  S
Cu514       N516   2.096       .  S
Cu514       N522   2.096       .  S
N515        N516   1.321       .  A
N515        C519   1.343       .  A
N516        C517   1.350       .  A
C517        C518   1.392       .  A
C517        H520   1.082       .  S
C518        C519   1.384       .  A
C518       C2136   1.499       .  S
C519        H521   1.082       .  S
N522        N523   1.325       .  A
N522        C526   1.349       .  A
N523        C524   1.349       .  A
C524        C525   1.390       .  A
C524        H527   1.082       .  S
C525        C526   1.388       .  A
C525       C2021   1.502       .  S
C526        H528   1.082       .  S
N529        N530   1.322       .  A
N529        C533   1.345       .  A
N529       Cu537   2.080       .  S
N530        C531   1.344       .  A
N530       Cu536   2.067       .  S
C531        C532   1.383       .  A
C531        H534   1.081       .  S
C532        C533   1.386       .  A
C532       C2007   1.489       .  S
C533        H535   1.081       .  S
Cu536       N539   2.067       .  S
Cu537       N547   2.080       .  S
Cu538       N540   2.077       .  S
Cu538       N546   2.077       .  S
N539        N540   1.322       .  A
N539        C543   1.345       .  A
N540        C541   1.344       .  A
C541        C542   1.385       .  A
C541        H544   1.082       .  S
C542        C543   1.383       .  A
C542       C2108   1.487       .  S
C543        H545   1.081       .  S
N546        N547   1.323       .  A
N546        C550   1.345       .  A
N547        C548   1.347       .  A
C548        C549   1.385       .  A
C548        H551   1.082       .  S
C549        C550   1.383       .  A
C549       C2052   1.488       .  S
C550        H552   1.082       .  S
N553        N554   1.323       .  A
N553        C557   1.343       .  A
N553       Cu561   2.072       .  S
N554        C555   1.348       .  A
N554       Cu560   2.087       .  S
C555        C556   1.387       .  A
C555        H558   1.081       .  S
C556        C557   1.383       .  A
C556       C2094   1.491       .  S
C557        H559   1.082       .  S
Cu560       N563   2.087       .  S
Cu561       N571   2.071       .  S
Cu562       N564   2.074       .  S
Cu562       N570   2.073       .  S
N563        N564   1.324       .  A
N563        C567   1.348       .  A
N564        C565   1.345       .  A
C565        C566   1.381       .  A
C565        H568   1.081       .  S
C566        C567   1.385       .  A
C566       C1993   1.487       .  S
C567        H569   1.081       .  S
N570        N571   1.321       .  A
N570        C574   1.345       .  A
N571        C572   1.345       .  A
C572        C573   1.385       .  A
C572        H575   1.082       .  S
C573        C574   1.385       .  A
C573       C2150   1.490       .  S
C574        H576   1.082       .  S
N577        N578   1.321       .  A
N577        C581   1.343       .  A
N577       Cu585   2.068       .  S
N578        C579   1.346       .  A
N578       Cu584   2.075       .  S
C579        C580   1.387       .  A
C579        H582   1.082       .  S
C580        C581   1.385       .  A
C580       C1951   1.492       .  S
C581        H583   1.081       .  S
Cu584       N587   2.075       .  S
Cu585       N595   2.068       .  S
Cu586       N588   2.073       .  S
Cu586       N594   2.073       .  S
N587        N588   1.322       .  A
N587        C591   1.343       .  A
N588        C589   1.346       .  A
C589        C590   1.386       .  A
C589        H592   1.082       .  S
C590        C591   1.385       .  A
C590       C1965   1.491       .  S
C591        H593   1.082       .  S
N594        N595   1.322       .  A
N594        C598   1.344       .  A
N595        C596   1.344       .  A
C596        C597   1.384       .  A
C596        H599   1.082       .  S
C597        C598   1.385       .  A
C597       C1979   1.487       .  S
C598        H600   1.081       .  S
N601        N602   1.324       .  A
N601        C605   1.346       .  A
N601       Cu609   2.085       .  S
N602        C603   1.347       .  A
N602       Cu608   2.085       .  S
C603        C604   1.387       .  A
C603        H606   1.082       .  S
C604        C605   1.387       .  A
C604       C1909   1.496       .  S
C605        H607   1.082       .  S
Cu608       N611   2.084       .  S
Cu609       N619   2.084       .  S
Cu610       N612   2.068       .  S
Cu610       N618   2.067       .  S
N611        N612   1.321       .  A
N611        C615   1.348       .  A
N612        C613   1.344       .  A
C613        C614   1.383       .  A
C613        H616   1.081       .  S
C614        C615   1.388       .  A
C614       C1937   1.492       .  S
C615        H617   1.081       .  S
N618        N619   1.321       .  A
N618        C622   1.342       .  A
N619        C620   1.348       .  A
C620        C621   1.390       .  A
C620        H623   1.082       .  S
C621        C622   1.385       .  A
C621       C1923   1.496       .  S
C622        H624   1.082       .  S
N625        N626   1.322       .  A
N625        C629   1.346       .  A
N625       Cu633   2.078       .  S
N626        C627   1.343       .  A
N626       Cu632   2.068       .  S
C627        C628   1.383       .  A
C627        H630   1.082       .  S
C628        C629   1.386       .  A
C628       C1867   1.489       .  S
C629        H631   1.082       .  S
Cu632       N635   2.068       .  S
Cu633       N643   2.079       .  S
Cu634       N636   2.074       .  S
Cu634       N642   2.074       .  S
N635        N636   1.321       .  A
N635        C639   1.345       .  A
N636        C637   1.345       .  A
C637        C638   1.385       .  A
C637        H640   1.081       .  S
C638        C639   1.384       .  A
C638       C1895   1.488       .  S
C639        H641   1.082       .  S
N642        N643   1.322       .  A
N642        C646   1.344       .  A
N643        C644   1.347       .  A
C644        C645   1.386       .  A
C644        H647   1.081       .  S
C645        C646   1.384       .  A
C645       C1881   1.491       .  S
C646        H648   1.082       .  S
N649        N650   1.321       .  A
N649        C653   1.343       .  A
N649       Cu657   2.066       .  S
N650        C651   1.345       .  A
N650       Cu656   2.075       .  S
C651        C652   1.387       .  A
C651        H654   1.082       .  S
C652        C653   1.384       .  A
C652       C1968   1.490       .  S
C653        H655   1.081       .  S
Cu656       N659   2.076       .  S
Cu657       N667   2.067       .  S
Cu658       N660   2.079       .  S
Cu658       N666   2.079       .  S
N659        N660   1.323       .  A
N659        C663   1.346       .  A
N660        C661   1.344       .  A
C661        C662   1.385       .  A
C661        H664   1.082       .  S
C662        C663   1.385       .  A
C662       C1898   1.490       .  S
C663        H665   1.081       .  S
N666        N667   1.321       .  A
N666        C670   1.348       .  A
N667        C668   1.342       .  A
C668        C669   1.383       .  A
C668        H671   1.082       .  S
C669        C670   1.387       .  A
C669       C1853   1.490       .  S
C670        H672   1.081       .  S
N673        N674   1.320       .  A
N673        C677   1.343       .  A
N673       Cu681   2.070       .  S
N674        C675   1.346       .  A
N674       Cu680   2.073       .  S
C675        C676   1.387       .  A
C675        H678   1.081       .  S
C676        C677   1.385       .  A
C676       C1884   1.491       .  S
C677        H679   1.082       .  S
Cu680       N683   2.074       .  S
Cu681       N691   2.070       .  S
Cu682       N684   2.085       .  S
Cu682       N690   2.085       .  S
N683        N684   1.323       .  A
N683        C687   1.344       .  A
N684        C685   1.347       .  A
C685        C686   1.386       .  A
C685        H688   1.081       .  S
C686        C687   1.383       .  A
C686       C1839   1.490       .  S
C687        H689   1.082       .  S
N690        N691   1.322       .  A
N690        C694   1.348       .  A
N691        C692   1.343       .  A
C692        C693   1.382       .  A
C692        H695   1.082       .  S
C693        C694   1.387       .  A
C693       C1926   1.490       .  S
C694        H696   1.081       .  S
N697        N698   1.322       .  A
N697        C701   1.345       .  A
N697       Cu705   2.068       .  S
N698        C699   1.345       .  A
N698       Cu704   2.079       .  S
C699        C700   1.384       .  A
C699        H702   1.082       .  S
C700        C701   1.383       .  A
C700       C1982   1.486       .  S
C701        H703   1.082       .  S
Cu704       N707   2.080       .  S
Cu705       N715   2.068       .  S
Cu706       N708   2.078       .  S
Cu706       N714   2.078       .  S
N707        N708   1.322       .  A
N707        C711   1.345       .  A
N708        C709   1.346       .  A
C709        C710   1.387       .  A
C709        H712   1.082       .  S
C710        C711   1.387       .  A
C710       C1940   1.496       .  S
C711        H713   1.082       .  S
N714        N715   1.323       .  A
N714        C718   1.345       .  A
N715        C716   1.345       .  A
C716        C717   1.381       .  A
C716        H719   1.082       .  S
C717        C718   1.382       .  A
C717       C1825   1.481       .  S
C718        H720   1.082       .  S
N721        N722   1.324       .  A
N721        C725   1.344       .  A
N721       Cu729   2.082       .  S
N722        C723   1.346       .  A
N722       Cu728   2.080       .  S
C723        C724   1.385       .  A
C723        H726   1.082       .  S
C724        C725   1.384       .  A
C724       C1783   1.490       .  S
C725        H727   1.081       .  S
Cu728       N731   2.079       .  S
Cu729       N739   2.081       .  S
Cu730       N732   2.057       .  S
Cu730       N738   2.058       .  S
N731        N732   1.321       .  A
N731        C735   1.346       .  A
N732        C733   1.341       .  A
C733        C734   1.382       .  A
C733        H736   1.082       .  S
C734        C735   1.388       .  A
C734       C1814   1.489       .  S
C735        H737   1.082       .  S
N738        N739   1.320       .  A
N738        C742   1.341       .  A
N739        C740   1.348       .  A
C740        C741   1.389       .  A
C740        H743   1.082       .  S
C741        C742   1.382       .  A
C741       C1800   1.490       .  S
C742        H744   1.082       .  S
N745        N746   1.323       .  A
N745        C749   1.350       .  A
N745       Cu753   2.093       .  S
N746        C747   1.343       .  A
N746       Cu752   2.069       .  S
C747        C748   1.383       .  A
C747        H750   1.081       .  S
C748        C749   1.389       .  A
C748       C1744   1.493       .  S
C749        H751   1.082       .  S
Cu752       N755   2.069       .  S
Cu753       N763   2.094       .  S
Cu754       N756   2.072       .  S
Cu754       N762   2.073       .  S
N755        N756   1.321       .  A
N755        C759   1.345       .  A
N756        C757   1.344       .  A
C757        C758   1.385       .  A
C757        H760   1.082       .  S
C758        C759   1.385       .  A
C758       C1772   1.489       .  S
C759        H761   1.082       .  S
N762        N763   1.323       .  A
N762        C766   1.345       .  A
N763        C764   1.347       .  A
C764        C765   1.389       .  A
C764        H767   1.081       .  S
C765        C766   1.384       .  A
C765       C1755   1.494       .  S
C766        H768   1.082       .  S
N769        N770   1.322       .  A
N769        C773   1.345       .  A
N769       Cu777   2.078       .  S
N770        C771   1.344       .  A
N770       Cu776   2.071       .  S
C771        C772   1.384       .  A
C771        H774   1.082       .  S
C772        C773   1.386       .  A
C772       C1727   1.490       .  S
C773        H775   1.082       .  S
Cu776       N779   2.071       .  S
Cu777       N787   2.077       .  S
Cu778       N780   2.077       .  S
Cu778       N786   2.077       .  S
N779        N780   1.321       .  A
N779        C783   1.345       .  A
N780        C781   1.345       .  A
C781        C782   1.387       .  A
C781        H784   1.081       .  S
C782        C783   1.387       .  A
C782       C1713   1.495       .  S
C783        H785   1.081       .  S
N786        N787   1.321       .  A
N786        C790   1.345       .  A
N787        C788   1.345       .  A
C788        C789   1.388       .  A
C788        H791   1.081       .  S
C789        C790   1.388       .  A
C789       C1699   1.498       .  S
C790        H792   1.081       .  S
N793        N794   1.322       .  A
N793        C797   1.347       .  A
N793       Cu801   2.078       .  S
N794        C795   1.342       .  A
N794       Cu800   2.067       .  S
C795        C796   1.383       .  A
C795        H798   1.082       .  S
C796        C797   1.387       .  A
C796       C1730   1.490       .  S
C797        H799   1.082       .  S
Cu800       N803   2.066       .  S
Cu801       N811   2.077       .  S
Cu802       N804   2.067       .  S
Cu802       N810   2.067       .  S
N803        N804   1.320       .  A
N803        C807   1.343       .  A
N804        C805   1.344       .  A
C805        C806   1.387       .  A
C805        H808   1.081       .  S
C806        C807   1.386       .  A
C806       C1811   1.492       .  S
C807        H809   1.081       .  S
N810        N811   1.323       .  A
N810        C814   1.342       .  A
N811        C812   1.346       .  A
C812        C813   1.384       .  A
C812        H815   1.082       .  S
C813        C814   1.382       .  A
C813       C1685   1.484       .  S
C814        H816   1.081       .  S
N817        N818   1.322       .  A
N817        C821   1.346       .  A
N817       Cu825   2.080       .  S
N818        C819   1.344       .  A
N818       Cu824   2.074       .  S
C819        C820   1.386       .  A
C819        H822   1.082       .  S
C820        C821   1.387       .  A
C820       C1716   1.494       .  S
C821        H823   1.082       .  S
Cu824       N827   2.074       .  S
Cu825       N835   2.080       .  S
Cu826       N828   2.067       .  S
Cu826       N834   2.068       .  S
N827        N828   1.322       .  A
N827        C831   1.346       .  A
N828        C829   1.344       .  A
C829        C830   1.383       .  A
C829        H832   1.082       .  S
C830        C831   1.384       .  A
C830       C1769   1.485       .  S
C831        H833   1.082       .  S
N834        N835   1.322       .  A
N834        C838   1.344       .  A
N835        C836   1.346       .  A
C836        C837   1.386       .  A
C836        H839   1.082       .  S
C837        C838   1.384       .  A
C837       C1671   1.489       .  S
C838        H840   1.082       .  S
N841        N842   1.323       .  A
N841        C845   1.346       .  A
N841       Cu849   2.084       .  S
N842        C843   1.347       .  A
N842       Cu848   2.081       .  S
C843        C844   1.385       .  A
C843        H846   1.081       .  S
C844        C845   1.385       .  A
C844       C1797   1.491       .  S
C845        H847   1.082       .  S
Cu848       N851   2.081       .  S
Cu849       N859   2.084       .  S
Cu850       N852   2.076       .  S
Cu850       N858   2.076       .  S
N851        N852   1.322       .  A
N851        C855   1.347       .  A
N852        C853   1.344       .  A
C853        C854   1.385       .  A
C853        H856   1.081       .  S
C854        C855   1.386       .  A
C854       C1657   1.492       .  S
C855        H857   1.082       .  S
N858        N859   1.322       .  A
N858        C862   1.346       .  A
N859        C860   1.347       .  A
C860        C861   1.387       .  A
C860        H863   1.082       .  S
C861        C862   1.384       .  A
C861       C1758   1.492       .  S
C862        H864   1.081       .  S
N865        N866   1.322       .  A
N865        C869   1.345       .  A
N865       Cu873   2.077       .  S
N866        C867   1.344       .  A
N866       Cu872   2.069       .  S
C867        C868   1.384       .  A
C867        H870   1.082       .  S
C868        C869   1.387       .  A
C868       C1643   1.491       .  S
C869        H871   1.082       .  S
Cu872       N875   2.070       .  S
Cu873       N883   2.078       .  S
Cu874       N876   2.081       .  S
Cu874       N882   2.082       .  S
N875        N876   1.321       .  A
N875        C879   1.344       .  A
N876        C877   1.346       .  A
C877        C878   1.388       .  A
C877        H880   1.082       .  S
C878        C879   1.386       .  A
C878       C1615   1.495       .  S
C879        H881   1.081       .  S
N882        N883   1.323       .  A
N882        C886   1.345       .  A
N883        C884   1.346       .  A
C884        C885   1.385       .  A
C884        H887   1.081       .  S
C885        C886   1.386       .  A
C885       C1629   1.492       .  S
C886        H888   1.081       .  S
N889        N890   1.324       .  A
N889        C893   1.350       .  A
N889       Cu897   2.098       .  S
N890        C891   1.343       .  A
N890       Cu896   2.069       .  S
C891        C892   1.381       .  A
C891        H894   1.082       .  S
C892        C893   1.389       .  A
C892       C1573   1.491       .  S
C893        H895   1.081       .  S
Cu896       N899   2.069       .  S
Cu897       N907   2.098       .  S
Cu898       N900   2.074       .  S
Cu898       N906   2.074       .  S
N899        N900   1.320       .  A
N899        C903   1.346       .  A
N900        C901   1.345       .  A
C901        C902   1.387       .  A
C901        H904   1.082       .  S
C902        C903   1.386       .  A
C902       C1601   1.492       .  S
C903        H905   1.081       .  S
N906        N907   1.324       .  A
N906        C910   1.344       .  A
N907        C908   1.350       .  A
C908        C909   1.389       .  A
C908        H911   1.081       .  S
C909        C910   1.381       .  A
C909       C1590   1.492       .  S
C910        H912   1.081       .  S
N913        N914   1.323       .  A
N913        C917   1.347       .  A
N913       Cu921   2.083       .  S
N914        C915   1.345       .  A
N914       Cu920   2.075       .  S
C915        C916   1.385       .  A
C915        H918   1.082       .  S
C916        C917   1.387       .  A
C916       C1534   1.493       .  S
C917        H919   1.081       .  S
Cu920       N923   2.075       .  S
Cu921       N931   2.082       .  S
Cu922       N924   2.077       .  S
Cu922       N930   2.076       .  S
N923        N924   1.322       .  A
N923        C927   1.345       .  A
N924        C925   1.346       .  A
C925        C926   1.385       .  A
C925        H928   1.082       .  S
C926        C927   1.385       .  A
C926       C1545   1.491       .  S
C927        H929   1.082       .  S
N930        N931   1.322       .  A
N930        C934   1.344       .  A
N931        C932   1.348       .  A
C932        C933   1.387       .  A
C932        H935   1.082       .  S
C933        C934   1.385       .  A
C933       C1562   1.493       .  S
C934        H936   1.082       .  S
N937        N938   1.322       .  A
N937        C941   1.347       .  A
N937       Cu945   2.086       .  S
N938        C939   1.345       .  A
N938       Cu944   2.072       .  S
C939        C940   1.386       .  A
C939        H942   1.081       .  S
C940        C941   1.390       .  A
C940       C1520   1.498       .  S
C941        H943   1.082       .  S
Cu944       N947   2.071       .  S
Cu945       N955   2.087       .  S
Cu946       N948   2.071       .  S
Cu946       N954   2.072       .  S
N947        N948   1.321       .  A
N947        C951   1.344       .  A
N948        C949   1.345       .  A
C949        C950   1.387       .  A
C949        H952   1.081       .  S
C950        C951   1.385       .  A
C950       C1646   1.492       .  S
C951        H953   1.082       .  S
N954        N955   1.323       .  A
N954        C958   1.344       .  A
N955        C956   1.348       .  A
C956        C957   1.387       .  A
C956        H959   1.081       .  S
C957        C958   1.383       .  A
C957       C1559   1.491       .  S
C958        H960   1.081       .  S
N961        N962   1.322       .  A
N961        C965   1.347       .  A
N961       Cu969   2.083       .  S
N962        C963   1.345       .  A
N962       Cu968   2.071       .  S
C963        C964   1.383       .  A
C963        H966   1.082       .  S
C964        C965   1.387       .  A
C964       C1604   1.491       .  S
C965        H967   1.082       .  S
Cu968       N971   2.071       .  S
Cu969       N979   2.084       .  S
Cu970       N972   2.075       .  S
Cu970       N978   2.076       .  S
N971        N972   1.321       .  A
N971        C975   1.342       .  A
N972        C973   1.347       .  A
C973        C974   1.389       .  A
C973        H976   1.081       .  S
C974        C975   1.386       .  A
C974       C1548   1.495       .  S
C975        H977   1.081       .  S
N978        N979   1.324       .  A
N978        C982   1.345       .  A
N979        C980   1.347       .  A
C980        C981   1.385       .  A
C980        H983   1.082       .  S
C981        C982   1.383       .  A
C981       C1503   1.490       .  S
C982        H984   1.081       .  S
N985        N986   1.323       .  A
N985        C989   1.345       .  A
N985       Cu993   2.085       .  S
N986        C987   1.345       .  A
N986       Cu992   2.082       .  S
C987        C988   1.386       .  A
C987        H990   1.087       .  S
C988        C989   1.386       .  A
C988       C1587   1.497       .  S
C989        H991   1.097       .  S
Cu992       N995   2.081       .  S
Cu993      N1003   2.085       .  S
Cu994       N996   2.075       .  S
Cu994      N1002   2.075       .  S
N995        N996   1.322       .  A
N995        C999   1.345       .  A
N996        C997   1.347       .  A
C997        C998   1.386       .  A
C997       H1000   1.081       .  S
C998        C999   1.385       .  A
C998       C1632   1.491       .  S
C999       H1001   1.083       .  S
N1002      N1003   1.323       .  A
N1002      C1006   1.345       .  A
N1003      C1004   1.347       .  A
C1004      C1005   1.387       .  A
C1004      H1007   1.082       .  S
C1005      C1006   1.385       .  A
C1005      C1489   1.493       .  S
C1006      H1008   1.081       .  S
N1009      N1010   1.321       .  A
N1009      C1013   1.345       .  A
N1009     Cu1017   2.074       .  S
N1010      C1011   1.344       .  A
N1010     Cu1016   2.071       .  S
C1011      C1012   1.385       .  A
C1011      H1014   1.081       .  S
C1012      C1013   1.387       .  A
C1012      C1461   1.491       .  S
C1013      H1015   1.081       .  S
Cu1016     N1019   2.071       .  S
Cu1017     N1027   2.074       .  S
Cu1018     N1020   2.089       .  S
Cu1018     N1026   2.089       .  S
N1019      N1020   1.322       .  A
N1019      C1023   1.344       .  A
N1020      C1021   1.348       .  A
C1021      C1022   1.389       .  A
C1021      H1024   1.082       .  S
C1022      C1023   1.384       .  A
C1022      C1450   1.494       .  S
C1023      H1025   1.082       .  S
N1026      N1027   1.323       .  A
N1026      C1030   1.347       .  A
N1027      C1028   1.345       .  A
C1028      C1029   1.384       .  A
C1028      H1031   1.082       .  S
C1029      C1030   1.387       .  A
C1029      C1475   1.492       .  S
C1030      H1032   1.082       .  S
N1033      N1034   1.323       .  A
N1033      C1037   1.346       .  A
N1033     Cu1041   2.081       .  S
N1034      C1035   1.345       .  A
N1034     Cu1040   2.076       .  S
C1035      C1036   1.384       .  A
C1035      H1038   1.082       .  S
C1036      C1037   1.385       .  A
C1036      C1405   1.490       .  S
C1037      H1039   1.082       .  S
Cu1040     N1043   2.076       .  S
Cu1041     N1051   2.080       .  S
Cu1042     N1044   2.076       .  S
Cu1042     N1050   2.076       .  S
N1043      N1044   1.322       .  A
N1043      C1047   1.347       .  A
N1044      C1045   1.344       .  A
C1045      C1046   1.385       .  A
C1045      H1048   1.082       .  S
C1046      C1047   1.385       .  A
C1046      C1436   1.489       .  S
C1047      H1049   1.081       .  S
N1050      N1051   1.322       .  A
N1050      C1054   1.344       .  A
N1051      C1052   1.348       .  A
C1052      C1053   1.385       .  A
C1052      H1055   1.082       .  S
C1053      C1054   1.384       .  A
C1053      C1419   1.488       .  S
C1054      H1056   1.082       .  S
N1057      N1058   1.323       .  A
N1057      C1061   1.346       .  A
N1057     Cu1065   2.079       .  S
N1058      C1059   1.344       .  A
N1058     Cu1064   2.068       .  S
C1059      C1060   1.381       .  A
C1059      H1062   1.082       .  S
C1060      C1061   1.384       .  A
C1060      C1363   1.484       .  S
C1061      H1063   1.082       .  S
Cu1064     N1067   2.067       .  S
Cu1065     N1075   2.079       .  S
Cu1066     N1068   2.078       .  S
Cu1066     N1074   2.079       .  S
N1067      N1068   1.322       .  A
N1067      C1071   1.345       .  A
N1068      C1069   1.345       .  A
C1069      C1070   1.385       .  A
C1069      H1072   1.082       .  S
C1070      C1071   1.383       .  A
C1070      C1380   1.487       .  S
C1071      H1073   1.081       .  S
N1074      N1075   1.323       .  A
N1074      C1078   1.346       .  A
N1075      C1076   1.346       .  A
C1076      C1077   1.384       .  A
C1076      H1079   1.081       .  S
C1077      C1078   1.384       .  A
C1077      C1391   1.487       .  S
C1078      H1080   1.082       .  S
N1081      N1082   1.321       .  A
N1081      C1085   1.345       .  A
N1081     Cu1089   2.076       .  S
N1082      C1083   1.345       .  A
N1082     Cu1088   2.066       .  S
C1083      C1084   1.384       .  A
C1083      H1086   1.081       .  S
C1084      C1085   1.385       .  A
C1084      C1433   1.487       .  S
C1085      H1087   1.082       .  S
Cu1088     N1091   2.067       .  S
Cu1089     N1099   2.077       .  S
Cu1090     N1092   2.082       .  S
Cu1090     N1098   2.083       .  S
N1091      N1092   1.322       .  A
N1091      C1095   1.342       .  A
N1092      C1093   1.347       .  A
C1093      C1094   1.387       .  A
C1093      H1096   1.082       .  S
C1094      C1095   1.383       .  A
C1094      C1377   1.490       .  S
C1095      H1097   1.082       .  S
N1098      N1099   1.323       .  A
N1098      C1102   1.347       .  A
N1099      C1100   1.345       .  A
C1100      C1101   1.383       .  A
C1100      H1103   1.082       .  S
C1101      C1102   1.386       .  A
C1101      C1352   1.492       .  S
C1102      H1104   1.082       .  S
N1105      N1106   1.322       .  A
N1105      C1109   1.347       .  A
N1105     Cu1113   2.079       .  S
N1106      C1107   1.344       .  A
N1106     Cu1112   2.073       .  S
C1107      C1108   1.384       .  A
C1107      H1110   1.082       .  S
C1108      C1109   1.386       .  A
C1108      C1394   1.490       .  S
C1109      H1111   1.082       .  S
Cu1112     N1115   2.073       .  S
Cu1113     N1123   2.079       .  S
Cu1114     N1116   2.068       .  S
Cu1114     N1122   2.068       .  S
N1115      N1116   1.321       .  A
N1115      C1119   1.343       .  A
N1116      C1117   1.345       .  A
C1117      C1118   1.386       .  A
C1117      H1120   1.081       .  S
C1118      C1119   1.386       .  A
C1118      C1464   1.491       .  S
C1119      H1121   1.082       .  S
N1122      N1123   1.323       .  A
N1122      C1126   1.343       .  A
N1123      C1124   1.346       .  A
C1124      C1125   1.382       .  A
C1124      H1127   1.081       .  S
C1125      C1126   1.380       .  A
C1125      C1335   1.480       .  S
C1126      H1128   1.081       .  S
N1129      N1130   1.319       .  A
N1129      C1133   1.343       .  A
N1129     Cu1137   2.065       .  S
N1130      C1131   1.345       .  A
N1130     Cu1136   2.081       .  S
C1131      C1132   1.392       .  A
C1131      H1134   1.080       .  S
C1132      C1133   1.388       .  A
C1132      C1422   1.502       .  S
C1133      H1135   1.081       .  S
Cu1136     N1139   2.083       .  S
Cu1137     N1147   2.065       .  S
Cu1138     N1140   2.076       .  S
Cu1138     N1146   2.075       .  S
N1139      N1140   1.323       .  A
N1139      C1143   1.345       .  A
N1140      C1141   1.347       .  A
C1141      C1142   1.384       .  A
C1141      H1144   1.082       .  S
C1142      C1143   1.384       .  A
C1142      C1478   1.489       .  S
C1143      H1145   1.082       .  S
N1146      N1147   1.322       .  A
N1146      C1150   1.345       .  A
N1147      C1148   1.343       .  A
C1148      C1149   1.382       .  A
C1148      H1151   1.081       .  S
C1149      C1150   1.385       .  A
C1149      C1324   1.485       .  S
C1150      H1152   1.082       .  S
O1153     Cu1161   2.008       .  S
O1153      C1163   1.278       .  A
O1154     Cu1161   2.017       .  S
O1154      C1164   1.279       .  A
O1155     Cu1161   2.016       .  S
O1155      C1165   1.279       .  A
O1156     Cu1161   2.011       .  S
O1156      C1166   1.278       .  A
O1157     Cu1162   2.011       .  S
O1157      C1166   1.279       .  A
O1158     Cu1162   2.009       .  S
O1158      C1165   1.278       .  A
O1159     Cu1162   1.987       .  S
O1159      C1164   1.275       .  A
O1160     Cu1162   1.994       .  S
O1160      C1163   1.276       .  A
Cu1161    Cu1162   2.372       .  S
C1163      C1321   1.478       .  S
C1164      C1688   1.488       .  S
C1165      C1517   1.486       .  S
C1166      C1856   1.497       .  S
O1167     Cu1175   2.011       .  S
O1167      C1177   1.278       .  A
O1168     Cu1175   2.005       .  S
O1168      C1178   1.277       .  A
O1169     Cu1175   2.013       .  S
O1169      C1179   1.278       .  A
O1170     Cu1175   2.008       .  S
O1170      C1180   1.278       .  A
O1171     Cu1176   2.011       .  S
O1171      C1180   1.278       .  A
O1172     Cu1176   2.006       .  S
O1172      C1179   1.278       .  A
O1173     Cu1176   2.008       .  S
O1173      C1178   1.278       .  A
O1174     Cu1176   2.008       .  S
O1174      C1177   1.278       .  A
Cu1175    Cu1176   2.364       .  S
C1177      C2178   1.487       .  S
C1178      C1338   1.505       .  S
C1179      C1828   1.502       .  S
C1180      C2329   1.485       .  S
O1181     Cu1189   2.015       .  S
O1181      C1191   1.279       .  A
O1182     Cu1189   2.003       .  S
O1182      C1192   1.276       .  A
O1183     Cu1189   2.012       .  S
O1183      C1193   1.279       .  A
O1184     Cu1189   2.019       .  S
O1184      C1194   1.279       .  A
O1185     Cu1190   2.011       .  S
O1185      C1194   1.278       .  A
O1186     Cu1190   2.011       .  S
O1186      C1193   1.278       .  A
O1187     Cu1190   2.008       .  S
O1187      C1192   1.277       .  A
O1188     Cu1190   2.003       .  S
O1188      C1191   1.277       .  A
Cu1189    Cu1190   2.366       .  S
C1191      C1506   1.489       .  S
C1192      C2343   1.479       .  S
C1193      C2500   1.497       .  S
C1194      C1349   1.515       .  S
O1195     Cu1203   2.006       .  S
O1195      C1205   1.278       .  A
O1196     Cu1203   2.006       .  S
O1196      C1206   1.277       .  A
O1197     Cu1203   2.012       .  S
O1197      C1207   1.278       .  A
O1198     Cu1203   1.998       .  S
O1198      C1208   1.277       .  A
O1199     Cu1204   2.034       .  S
O1199      C1208   1.281       .  A
O1200     Cu1204   2.034       .  S
O1200      C1207   1.280       .  A
O1201     Cu1204   2.023       .  S
O1201      C1206   1.279       .  A
O1202     Cu1204   2.012       .  S
O1202      C1205   1.278       .  A
Cu1203    Cu1204   2.365       .  S
C1205      C1674   1.490       .  S
C1206      C2514   1.512       .  S
C1207      C2024   1.495       .  S
C1208      C1492   1.496       .  S
O1209     Cu1217   2.009       .  S
O1209      C1219   1.278       .  A
O1210     Cu1217   2.021       .  S
O1210      C1220   1.279       .  A
O1211     Cu1217   2.029       .  S
O1211      C1221   1.280       .  A
O1212     Cu1217   2.022       .  S
O1212      C1222   1.280       .  A
O1213     Cu1218   2.004       .  S
O1213      C1222   1.276       .  A
O1214     Cu1218   1.994       .  S
O1214      C1221   1.276       .  A
O1215     Cu1218   2.006       .  S
O1215      C1220   1.278       .  A
O1216     Cu1218   2.016       .  S
O1216      C1219   1.279       .  A
Cu1217    Cu1218   2.363       .  S
C1219      C2164   1.493       .  S
C1220      C1660   1.502       .  S
C1221      C1842   1.497       .  S
C1222      C1996   1.507       .  S
O1223     Cu1231   1.999       .  S
O1223      C1233   1.277       .  A
O1224     Cu1231   2.000       .  S
O1224      C1234   1.277       .  A
O1225     Cu1231   2.008       .  S
O1225      C1235   1.278       .  A
O1226     Cu1231   2.013       .  S
O1226      C1236   1.278       .  A
O1227     Cu1232   2.004       .  S
O1227      C1236   1.277       .  A
O1228     Cu1232   2.005       .  S
O1228      C1235   1.277       .  A
O1229     Cu1232   2.019       .  S
O1229      C1234   1.279       .  A
O1230     Cu1232   2.011       .  S
O1230      C1233   1.278       .  A
Cu1231    Cu1232   2.373       .  S
C1233      C2010   1.485       .  S
C1234      C2360   1.486       .  S
C1235      C2192   1.490       .  S
C1236      C2528   1.486       .  S
O1237     Cu1245   2.022       .  S
O1237      C1247   1.279       .  A
O1238     Cu1245   2.022   1_565  S
O1238      C1248   1.279       .  A
O1239     Cu1245   2.017       .  S
O1239      C1249   1.279       .  A
O1240     Cu1245   2.012   1_565  S
O1240      C1250   1.278       .  A
O1241     Cu1246   2.013   1_565  S
O1241      C1250   1.278       .  A
O1242     Cu1246   2.007       .  S
O1242      C1249   1.277       .  A
O1243     Cu1246   2.011   1_565  S
O1243      C1248   1.278       .  A
O1244     Cu1246   2.000       .  S
O1244      C1247   1.277       .  A
Cu1245    Cu1246   2.364       .  S
C1247      C1576   1.503   1_455  S
C1248      C1912   1.495       .  S
C1249      C1366   1.507       .  S
C1250      C1741   1.492   1_455  S
O1251     Cu1259   2.010       .  S
O1251      C1261   1.278       .  A
O1252     Cu1259   2.007   1_565  S
O1252      C1262   1.278       .  A
O1253     Cu1259   2.014       .  S
O1253      C1263   1.279       .  A
O1254     Cu1259   2.012   1_565  S
O1254      C1264   1.278       .  A
O1255     Cu1260   2.006   1_565  S
O1255      C1264   1.278       .  A
O1256     Cu1260   2.005       .  S
O1256      C1263   1.277       .  A
O1257     Cu1260   2.011   1_565  S
O1257      C1262   1.278       .  A
O1258     Cu1260   2.011       .  S
O1258      C1261   1.278       .  A
Cu1259    Cu1260   2.371       .  S
C1261      C2584   1.488       .  S
C1262      C2248   1.491       .  S
C1263      C2416   1.491       .  S
C1264      C2122   1.489   1_455  S
O1265     Cu1273   2.000       .  S
O1265      C1275   1.277       .  A
O1266     Cu1273   2.006   1_554  S
O1266      C1276   1.278   1_545  A
O1267     Cu1273   2.008   1_554  S
O1267      C1277   1.278       .  A
O1268     Cu1273   2.010       .  S
O1268      C1278   1.278   1_545  A
O1269     Cu1274   2.023       .  S
O1269      C1278   1.280   1_545  A
O1270     Cu1274   2.024   1_554  S
O1270      C1277   1.280       .  A
O1271     Cu1274   1.999   1_554  S
O1271      C1276   1.276   1_545  A
O1272     Cu1274   2.005       .  S
O1272      C1275   1.277       .  A
Cu1273    Cu1274   2.370       .  S
C1275      C2374   1.481       .  S
C1276      C1870   1.481       .  S
C1277      C1408   1.507       .  S
C1278      C2290   1.494       .  S
O1279     Cu1287   1.993       .  S
O1279      C1289   1.276       .  A
O1280     Cu1287   2.000   1_554  S
O1280      C1290   1.277       .  A
O1281     Cu1287   2.002       .  S
O1281      C1291   1.278       .  A
O1282     Cu1287   2.006   1_554  S
O1282      C1292   1.278       .  A
O1283     Cu1288   2.019   1_554  S
O1283      C1292   1.279       .  A
O1284     Cu1288   2.015       .  S
O1284      C1291   1.278       .  A
O1285     Cu1288   2.018   1_554  S
O1285      C1290   1.279       .  A
O1286     Cu1288   2.019       .  S
O1286      C1289   1.279       .  A
Cu1287    Cu1288   2.372       .  S
C1289      C2458   1.484       .  S
C1290      C1618   1.490   1_455  S
C1291      C2542   1.486   1_455  S
C1292      C1447   1.496       .  S
O1293     Cu1301   2.011       .  S
O1293      C1303   1.278   1_556  A
O1294     Cu1301   2.009   1_565  S
O1294      C1304   1.277       .  A
O1295     Cu1301   2.007       .  S
O1295      C1305   1.278       .  A
O1296     Cu1301   2.000   1_564  S
O1296      C1306   1.277       .  A
O1297     Cu1302   2.014   1_565  S
O1297      C1306   1.278   1_556  A
O1298     Cu1302   2.012       .  S
O1298      C1305   1.279       .  A
O1299     Cu1302   2.007   1_565  S
O1299      C1304   1.277       .  A
O1300     Cu1302   2.010       .  S
O1300      C1303   1.278   1_556  A
Cu1301    Cu1302   2.374       .  S
C1303      C1531   1.486       .  S
C1304      C2080   1.480       .  S
C1305      C2626   1.488       .  S
C1306      C1786   1.486       .  S
O1307     Cu1315   2.004       .  S
O1307      C1317   1.277       .  A
O1308     Cu1315   2.010   1_554  S
O1308      C1318   1.277       .  A
O1309     Cu1315   2.017       .  S
O1309      C1319   1.279       .  A
O1310     Cu1315   2.018   1_554  S
O1310      C1320   1.279       .  A
O1311     Cu1316   2.001   1_554  S
O1311      C1320   1.277       .  A
O1312     Cu1316   2.005       .  S
O1312      C1319   1.277       .  A
O1313     Cu1316   2.006   1_554  S
O1313      C1318   1.278       .  A
O1314     Cu1316   2.008       .  S
O1314      C1317   1.278       .  A
Cu1315    Cu1316   2.373       .  S
C1317      C2206   1.486       .  S
C1318      C1702   1.484       .  S
C1319      C2038   1.490   1_455  S
C1320      C1954   1.492       .  S
C1321      C1322   1.411       .  A
C1321      C1326   1.412       .  A
C1322      C1323   1.410       .  A
C1322      C1327   1.452       .  S
C1323      C1324   1.415       .  A
C1323      C1330   1.451       .  S
C1324      C1325   1.415       .  A
C1325      C1326   1.409       .  A
C1325      C1328   1.451       .  S
C1326      C1329   1.453       .  S
C1327      N1334   1.157       .  T
C1328      N1333   1.157       .  T
C1329      N1331   1.157       .  T
C1330      N1332   1.157       .  T
C1335      C1336   1.407       .  A
C1335      C1340   1.406       .  A
C1336      C1337   1.410       .  A
C1336      C1341   1.453       .  S
C1337      C1338   1.425       .  A
C1337      C1344   1.452       .  S
C1338      C1339   1.426       .  A
C1339      C1340   1.412       .  A
C1339      C1342   1.451       .  S
C1340      C1343   1.452       .  S
C1341      N1348   1.157       .  T
C1342      N1347   1.157       .  T
C1343      N1345   1.157       .  T
C1344      N1346   1.158       .  T
C1349      C1350   1.426       .  A
C1349      C1354   1.428       .  A
C1350      C1351   1.415       .  A
C1350      C1355   1.452       .  S
C1351      C1352   1.410       .  A
C1351      C1358   1.453       .  S
C1352      C1353   1.409       .  A
C1353      C1354   1.414       .  A
C1353      C1356   1.453       .  S
C1354      C1357   1.452       .  S
C1355      N1362   1.158       .  T
C1356      N1361   1.157       .  T
C1357      N1359   1.158       .  T
C1358      N1360   1.157       .  T
C1363      C1364   1.408       .  A
C1363      C1368   1.408       .  A
C1364      C1365   1.414       .  A
C1364      C1369   1.452       .  S
C1365      C1366   1.425       .  A
C1365      C1372   1.451       .  S
C1366      C1367   1.424       .  A
C1367      C1368   1.411       .  A
C1367      C1370   1.451       .  S
C1368      C1371   1.453       .  S
C1369      N1376   1.157       .  T
C1370      N1375   1.157       .  T
C1371      N1373   1.157       .  T
C1372      N1374   1.157       .  T
C1377      C1378   1.415       .  A
C1377      C1382   1.415       .  A
C1378      C1379   1.411       .  A
C1378      C1383   1.452       .  S
C1379      C1380   1.413       .  A
C1379      C1386   1.451       .  S
C1380      C1381   1.413       .  A
C1381      C1382   1.411       .  A
C1381      C1384   1.452       .  S
C1382      C1385   1.451       .  S
C1383      N1390   1.157       .  T
C1384      N1389   1.157       .  T
C1385      N1387   1.157       .  T
C1386      N1388   1.157       .  T
C1391      C1392   1.413       .  A
C1391      C1396   1.412       .  A
C1392      C1393   1.412       .  A
C1392      C1397   1.451       .  S
C1393      C1394   1.415       .  A
C1393      C1400   1.451       .  S
C1394      C1395   1.414       .  A
C1395      C1396   1.412       .  A
C1395      C1398   1.451       .  S
C1396      C1399   1.451       .  S
C1397      N1404   1.157       .  T
C1398      N1403   1.157       .  T
C1399      N1401   1.157       .  T
C1400      N1402   1.157       .  T
C1405      C1406   1.410       .  A
C1405      C1410   1.411       .  A
C1406      C1407   1.413       .  A
C1406      C1411   1.452       .  S
C1407      C1408   1.423       .  A
C1407      C1414   1.452       .  S
C1408      C1409   1.422       .  A
C1409      C1410   1.415       .  A
C1409      C1412   1.451       .  S
C1410      C1413   1.452       .  S
C1411      N1418   1.157       .  T
C1412      N1417   1.157       .  T
C1413      N1415   1.157       .  T
C1414      N1416   1.157       .  T
C1419      C1420   1.410       .  A
C1419      C1424   1.411       .  A
C1420      C1421   1.415       .  A
C1420      C1425   1.451       .  S
C1421      C1422   1.421       .  A
C1421      C1428   1.451       .  S
C1422      C1423   1.421       .  A
C1423      C1424   1.410       .  A
C1423      C1426   1.451       .  S
C1424      C1427   1.453       .  S
C1425      N1432   1.157       .  T
C1426      N1431   1.158       .  T
C1427      N1429   1.157       .  T
C1428      N1430   1.158       .  T
C1433      C1434   1.413       .  A
C1433      C1438   1.414       .  A
C1434      C1435   1.411       .  A
C1434      C1439   1.451       .  S
C1435      C1436   1.414       .  A
C1435      C1442   1.451       .  S
C1436      C1437   1.414       .  A
C1437      C1438   1.412       .  A
C1437      C1440   1.451       .  S
C1438      C1441   1.451       .  S
C1439      N1446   1.157       .  T
C1440      N1445   1.157       .  T
C1441      N1443   1.157       .  T
C1442      N1444   1.157       .  T
C1447      C1448   1.417       .  A
C1447      C1452   1.417       .  A
C1448      C1449   1.413       .  A
C1448      C1453   1.452       .  S
C1449      C1450   1.415       .  A
C1449      C1456   1.452       .  S
C1450      C1451   1.414       .  A
C1451      C1452   1.414       .  A
C1451      C1454   1.451       .  S
C1452      C1455   1.451       .  S
C1453      N1460   1.157       .  T
C1454      N1459   1.157       .  T
C1455      N1457   1.157       .  T
C1456      N1458   1.157       .  T
C1461      C1462   1.415       .  A
C1461      C1466   1.415       .  A
C1462      C1463   1.412       .  A
C1462      C1467   1.452       .  S
C1463      C1464   1.415       .  A
C1463      C1470   1.451       .  S
C1464      C1465   1.415       .  A
C1465      C1466   1.410       .  A
C1465      C1468   1.452       .  S
C1466      C1469   1.451       .  S
C1467      N1474   1.157       .  T
C1468      N1473   1.157       .  T
C1469      N1471   1.157       .  T
C1470      N1472   1.157       .  T
C1475      C1476   1.416       .  A
C1475      C1480   1.415       .  A
C1476      C1477   1.412       .  A
C1476      C1481   1.451       .  S
C1477      C1478   1.413       .  A
C1477      C1484   1.452       .  S
C1478      C1479   1.413       .  A
C1479      C1480   1.413       .  A
C1479      C1482   1.451       .  S
C1480      C1483   1.451       .  S
C1481      N1488   1.157       .  T
C1482      N1487   1.157       .  T
C1483      N1485   1.157       .  T
C1484      N1486   1.157       .  T
C1489      C1490   1.413       .  A
C1489      C1494   1.414       .  A
C1490      C1491   1.411       .  A
C1490      C1495   1.452       .  S
C1491      C1492   1.417       .  A
C1491      C1498   1.452       .  S
C1492      C1493   1.416       .  A
C1493      C1494   1.415       .  A
C1493      C1496   1.450       .  S
C1494      C1497   1.451       .  S
C1495      N1502   1.157       .  T
C1496      N1501   1.157   1_655  T
C1497      N1499   1.157   1_655  T
C1498      N1500   1.157       .  T
C1503      C1504   1.415       .  A
C1503      C1508   1.413       .  A
C1504      C1505   1.412       .  A
C1504      C1509   1.451       .  S
C1505      C1506   1.414       .  A
C1505      C1512   1.451       .  S
C1506      C1507   1.416       .  A
C1507      C1508   1.411       .  A
C1507      C1510   1.452       .  S
C1508      C1511   1.451       .  S
C1509      N1516   1.157       .  T
C1510      N1515   1.157       .  T
C1511      N1513   1.157       .  T
C1512      N1514   1.157       .  T
C1517      C1518   1.412       .  A
C1517      C1522   1.411       .  A
C1518      C1519   1.413       .  A
C1518      C1523   1.452       .  S
C1519      C1520   1.418       .  A
C1519      C1526   1.451       .  S
C1520      C1521   1.419       .  A
C1521      C1522   1.413       .  A
C1521      C1524   1.451       .  S
C1522      C1525   1.452       .  S
C1523      N1530   1.157       .  T
C1524      N1529   1.157       .  T
C1525      N1527   1.157       .  T
C1526      N1528   1.157       .  T
C1531      C1532   1.413       .  A
C1531      C1536   1.412       .  A
C1532      C1533   1.412       .  A
C1532      C1537   1.452       .  S
C1533      C1534   1.416       .  A
C1533      C1540   1.451       .  S
C1534      C1535   1.416       .  A
C1535      C1536   1.413       .  A
C1535      C1538   1.451       .  S
C1536      C1539   1.452   1_554  S
C1537      N1544   1.157       .  T
C1538      N1543   1.157       .  T
C1539      N1541   1.157       .  T
C1540      N1542   1.157       .  T
C1545      C1546   1.413       .  A
C1545      C1550   1.414       .  A
C1546      C1547   1.411       .  A
C1546      C1551   1.451       .  S
C1547      C1548   1.416       .  A
C1547      C1554   1.452       .  S
C1548      C1549   1.417       .  A
C1549      C1550   1.413       .  A
C1549      C1552   1.451       .  S
C1550      C1553   1.452       .  S
C1551      N1558   1.157       .  T
C1552      N1557   1.158       .  T
C1553      N1555   1.157       .  T
C1554      N1556   1.157       .  T
C1559      C1560   1.414       .  A
C1559      C1564   1.414       .  A
C1560      C1561   1.410       .  A
C1560      C1565   1.452       .  S
C1561      C1562   1.416       .  A
C1561      C1568   1.452       .  S
C1562      C1563   1.415       .  A
C1563      C1564   1.414       .  A
C1563      C1566   1.451       .  S
C1564      C1567   1.451       .  S
C1565      N1572   1.157       .  T
C1566      N1571   1.157       .  T
C1567      N1569   1.157       .  T
C1568      N1570   1.157       .  T
C1573      C1574   1.413       .  A
C1573      C1578   1.411       .  A
C1574      C1575   1.411       .  A
C1574      C1579   1.452       .  S
C1575      C1576   1.421       .  A
C1575      C1582   1.453       .  S
C1576      C1577   1.421       .  A
C1577      C1578   1.415       .  A
C1577      C1580   1.450       .  S
C1578      C1581   1.451       .  S
C1579      N1586   1.157       .  T
C1580      N1585   1.157   1_655  T
C1581      N1583   1.157       .  T
C1582      N1584   1.158       .  T
C1587      C1588   1.417       .  A
C1587      C1592   1.416       .  A
C1588      C1589   1.414       .  A
C1588      C1593   1.451       .  S
C1589      C1590   1.413       .  A
C1589      C1596   1.451       .  S
C1590      C1591   1.413       .  A
C1591      C1592   1.414       .  A
C1591      C1594   1.451       .  S
C1592      C1595   1.451       .  S
C1593      N1600   1.157       .  T
C1594      N1599   1.157       .  T
C1595      N1597   1.157       .  T
C1596      N1598   1.157       .  T
C1601      C1602   1.415       .  A
C1601      C1606   1.415       .  A
C1602      C1603   1.413       .  A
C1602      C1607   1.451       .  S
C1603      C1604   1.414       .  A
C1603      C1610   1.451       .  S
C1604      C1605   1.413       .  A
C1605      C1606   1.411       .  A
C1605      C1608   1.451       .  S
C1606      C1609   1.451       .  S
C1607      N1614   1.157       .  T
C1608      N1613   1.157       .  T
C1609      N1611   1.157       .  T
C1610      N1612   1.157       .  T
C1615      C1616   1.417       .  A
C1615      C1620   1.416       .  A
C1616      C1617   1.412       .  A
C1616      C1621   1.451       .  S
C1617      C1618   1.415       .  A
C1617      C1624   1.453       .  S
C1618      C1619   1.413       .  A
C1619      C1620   1.413       .  A
C1619      C1622   1.451   1_655  S
C1620      C1623   1.451       .  S
C1621      N1628   1.158       .  T
C1622      N1627   1.157       .  T
C1623      N1625   1.157       .  T
C1624      N1626   1.158   1_554  T
C1629      C1630   1.415       .  A
C1629      C1634   1.415       .  A
C1630      C1631   1.414       .  A
C1630      C1635   1.451       .  S
C1631      C1632   1.415       .  A
C1631      C1638   1.451       .  S
C1632      C1633   1.413       .  A
C1633      C1634   1.411       .  A
C1633      C1636   1.451       .  S
C1634      C1637   1.451       .  S
C1635      N1642   1.157       .  T
C1636      N1641   1.157       .  T
C1637      N1639   1.157       .  T
C1638      N1640   1.157       .  T
C1643      C1644   1.415       .  A
C1643      C1648   1.415       .  A
C1644      C1645   1.412       .  A
C1644      C1649   1.452       .  S
C1645      C1646   1.416       .  A
C1645      C1652   1.451       .  S
C1646      C1647   1.414       .  A
C1647      C1648   1.411       .  A
C1647      C1650   1.452       .  S
C1648      C1651   1.451       .  S
C1649      N1656   1.157       .  T
C1650      N1655   1.157       .  T
C1651      N1653   1.157       .  T
C1652      N1654   1.157       .  T
C1657      C1658   1.413       .  A
C1657      C1662   1.412       .  A
C1658      C1659   1.411       .  A
C1658      C1663   1.452       .  S
C1659      C1660   1.421       .  A
C1659      C1666   1.453       .  S
C1660      C1661   1.421       .  A
C1661      C1662   1.415       .  A
C1661      C1664   1.450       .  S
C1662      C1665   1.452       .  S
C1663      N1670   1.157       .  T
C1664      N1669   1.157       .  T
C1665      N1667   1.157       .  T
C1666      N1668   1.157       .  T
C1671      C1672   1.413       .  A
C1671      C1676   1.415       .  A
C1672      C1673   1.412       .  A
C1672      C1677   1.451   1_655  S
C1673      C1674   1.416       .  A
C1673      C1680   1.452   1_655  S
C1674      C1675   1.415       .  A
C1675      C1676   1.411       .  A
C1675      C1678   1.452       .  S
C1676      C1679   1.452       .  S
C1677      N1684   1.157       .  T
C1678      N1683   1.157       .  T
C1679      N1681   1.157       .  T
C1680      N1682   1.157       .  T
C1685      C1686   1.412       .  A
C1685      C1690   1.412       .  A
C1686      C1687   1.408       .  A
C1686      C1691   1.452       .  S
C1687      C1688   1.417       .  A
C1687      C1694   1.453       .  S
C1688      C1689   1.416       .  A
C1689      C1690   1.412       .  A
C1689      C1692   1.451       .  S
C1690      C1693   1.451       .  S
C1691      N1698   1.157       .  T
C1692      N1697   1.157       .  T
C1693      N1695   1.157       .  T
C1694      N1696   1.158       .  T
C1699      C1700   1.419       .  A
C1699      C1704   1.419       .  A
C1700      C1701   1.412   1_655  A
C1700      C1705   1.450       .  S
C1701      C1702   1.411       .  A
C1701      C1708   1.453       .  S
C1702      C1703   1.411   1_455  A
C1703      C1704   1.412       .  A
C1703      C1706   1.452       .  S
C1704      C1707   1.451       .  S
C1705      N1712   1.158   1_655  T
C1706      N1711   1.157   1_554  T
C1707      N1709   1.157       .  T
C1708      N1710   1.157       .  T
C1713      C1714   1.416       .  A
C1713      C1718   1.416       .  A
C1714      C1715   1.412       .  A
C1714      C1719   1.452       .  S
C1715      C1716   1.416       .  A
C1715      C1722   1.452       .  S
C1716      C1717   1.415       .  A
C1717      C1718   1.412       .  A
C1717      C1720   1.451       .  S
C1718      C1721   1.451       .  S
C1719      N1726   1.158       .  T
C1720      N1725   1.157       .  T
C1721      N1723   1.157       .  T
C1722      N1724   1.157       .  T
C1727      C1728   1.414       .  A
C1727      C1732   1.415       .  A
C1728      C1729   1.410       .  A
C1728      C1733   1.451       .  S
C1729      C1730   1.415       .  A
C1729      C1736   1.452       .  S
C1730      C1731   1.414       .  A
C1731      C1732   1.412       .  A
C1731      C1734   1.451       .  S
C1732      C1735   1.451       .  S
C1733      N1740   1.157       .  T
C1734      N1739   1.157       .  T
C1735      N1737   1.157       .  T
C1736      N1738   1.157       .  T
C1741      C1742   1.416       .  A
C1741      C1746   1.414       .  A
C1742      C1743   1.414       .  A
C1742      C1747   1.452       .  S
C1743      C1744   1.413       .  A
C1743      C1750   1.451       .  S
C1744      C1745   1.416       .  A
C1745      C1746   1.412       .  A
C1745      C1748   1.452       .  S
C1746      C1749   1.452   1_655  S
C1747      N1754   1.157       .  T
C1748      N1753   1.157       .  T
C1749      N1751   1.157       .  T
C1750      N1752   1.157       .  T
C1755      C1756   1.416       .  A
C1755      C1760   1.415       .  A
C1756      C1757   1.414       .  A
C1756      C1761   1.451       .  S
C1757      C1758   1.414       .  A
C1757      C1764   1.451       .  S
C1758      C1759   1.414       .  A
C1759      C1760   1.412       .  A
C1759      C1762   1.451       .  S
C1760      C1763   1.451       .  S
C1761      N1768   1.157       .  T
C1762      N1767   1.157       .  T
C1763      N1765   1.157       .  T
C1764      N1766   1.157       .  T
C1769      C1770   1.411       .  A
C1769      C1774   1.413       .  A
C1770      C1771   1.412       .  A
C1770      C1775   1.451       .  S
C1771      C1772   1.416       .  A
C1771      C1778   1.451       .  S
C1772      C1773   1.414       .  A
C1773      C1774   1.410       .  A
C1773      C1776   1.451       .  S
C1774      C1777   1.451       .  S
C1775      N1782   1.157       .  T
C1776      N1781   1.157       .  T
C1777      N1779   1.157       .  T
C1778      N1780   1.157       .  T
C1783      C1784   1.415       .  A
C1783      C1788   1.415       .  A
C1784      C1785   1.409       .  A
C1784      C1789   1.451       .  S
C1785      C1786   1.413       .  A
C1785      C1792   1.452       .  S
C1786      C1787   1.414       .  A
C1787      C1788   1.413       .  A
C1787      C1790   1.451       .  S
C1788      C1791   1.451       .  S
C1789      N1796   1.157       .  T
C1790      N1795   1.157   1_554  T
C1791      N1793   1.157       .  T
C1792      N1794   1.157   1_565  T
C1797      C1798   1.414       .  A
C1797      C1802   1.414       .  A
C1798      C1799   1.412       .  A
C1798      C1803   1.451       .  S
C1799      C1800   1.415       .  A
C1799      C1806   1.452       .  S
C1800      C1801   1.414       .  A
C1801      C1802   1.413       .  A
C1801      C1804   1.451       .  S
C1802      C1805   1.451       .  S
C1803      N1810   1.157       .  T
C1804      N1809   1.157       .  T
C1805      N1807   1.157       .  T
C1806      N1808   1.157       .  T
C1811      C1812   1.416       .  A
C1811      C1816   1.416       .  A
C1812      C1813   1.411       .  A
C1812      C1817   1.452       .  S
C1813      C1814   1.415       .  A
C1813      C1820   1.452       .  S
C1814      C1815   1.413       .  A
C1815      C1816   1.411       .  A
C1815      C1818   1.451       .  S
C1816      C1819   1.451       .  S
C1817      N1824   1.158       .  T
C1818      N1823   1.157       .  T
C1819      N1821   1.157       .  T
C1820      N1822   1.158       .  T
C1825      C1826   1.408       .  A
C1825      C1830   1.408       .  A
C1826      C1827   1.412       .  A
C1826      C1831   1.452       .  S
C1827      C1828   1.422       .  A
C1827      C1834   1.450       .  S
C1828      C1829   1.423       .  A
C1829      C1830   1.412       .  A
C1829      C1832   1.452       .  S
C1830      C1833   1.452       .  S
C1831      N1838   1.157       .  T
C1832      N1837   1.158       .  T
C1833      N1835   1.157       .  T
C1834      N1836   1.157       .  T
C1839      C1840   1.414       .  A
C1839      C1844   1.411       .  A
C1840      C1841   1.414       .  A
C1840      C1845   1.452       .  S
C1841      C1842   1.417       .  A
C1841      C1848   1.450       .  S
C1842      C1843   1.420       .  A
C1843      C1844   1.411       .  A
C1843      C1846   1.453       .  S
C1844      C1847   1.452       .  S
C1845      N1852   1.157       .  T
C1846      N1851   1.157       .  T
C1847      N1849   1.157       .  T
C1848      N1850   1.157       .  T
C1853      C1854   1.413       .  A
C1853      C1858   1.413       .  A
C1854      C1855   1.409       .  A
C1854      C1859   1.452       .  S
C1855      C1856   1.417       .  A
C1855      C1862   1.452       .  S
C1856      C1857   1.419       .  A
C1857      C1858   1.415       .  A
C1857      C1860   1.451       .  S
C1858      C1861   1.451       .  S
C1859      N1866   1.157       .  T
C1860      N1865   1.158       .  T
C1861      N1863   1.157       .  T
C1862      N1864   1.157       .  T
C1867      C1868   1.417       .  A
C1867      C1872   1.415       .  A
C1868      C1869   1.409       .  A
C1868      C1873   1.451       .  S
C1869      C1870   1.411       .  A
C1869      C1876   1.453       .  S
C1870      C1871   1.412       .  A
C1871      C1872   1.411       .  A
C1871      C1874   1.452   1_565  S
C1872      C1875   1.451       .  S
C1873      N1880   1.157       .  T
C1874      N1879   1.157       .  T
C1875      N1877   1.157       .  T
C1876      N1878   1.157   1_554  T
C1881      C1882   1.414       .  A
C1881      C1886   1.415       .  A
C1882      C1883   1.412       .  A
C1882      C1887   1.451       .  S
C1883      C1884   1.415       .  A
C1883      C1890   1.452       .  S
C1884      C1885   1.415       .  A
C1885      C1886   1.412       .  A
C1885      C1888   1.451       .  S
C1886      C1889   1.452       .  S
C1887      N1894   1.157       .  T
C1888      N1893   1.157       .  T
C1889      N1891   1.157       .  T
C1890      N1892   1.157       .  T
C1895      C1896   1.414       .  A
C1895      C1900   1.412       .  A
C1896      C1897   1.412       .  A
C1896      C1901   1.451       .  S
C1897      C1898   1.414       .  A
C1897      C1904   1.451       .  S
C1898      C1899   1.416       .  A
C1899      C1900   1.411       .  A
C1899      C1902   1.451       .  S
C1900      C1903   1.452       .  S
C1901      N1908   1.157       .  T
C1902      N1907   1.157       .  T
C1903      N1905   1.157       .  T
C1904      N1906   1.157       .  T
C1909      C1910   1.416       .  A
C1909      C1914   1.415       .  A
C1910      C1911   1.415       .  A
C1910      C1915   1.451       .  S
C1911      C1912   1.415       .  A
C1911      C1918   1.451       .  S
C1912      C1913   1.415       .  A
C1913      C1914   1.412       .  A
C1913      C1916   1.449       .  S
C1914      C1917   1.452       .  S
C1915      N1922   1.157       .  T
C1916      N1921   1.156   1_565  T
C1917      N1919   1.157       .  T
C1918      N1920   1.157       .  T
C1923      C1924   1.417       .  A
C1923      C1928   1.417       .  A
C1924      C1925   1.414       .  A
C1924      C1929   1.450       .  S
C1925      C1926   1.413       .  A
C1925      C1932   1.451       .  S
C1926      C1927   1.413       .  A
C1927      C1928   1.411       .  A
C1927      C1930   1.452       .  S
C1928      C1931   1.452       .  S
C1929      N1936   1.157       .  T
C1930      N1935   1.157       .  T
C1931      N1933   1.157       .  T
C1932      N1934   1.157       .  T
C1937      C1938   1.414       .  A
C1937      C1942   1.414       .  A
C1938      C1939   1.413       .  A
C1938      C1943   1.452       .  S
C1939      C1940   1.417       .  A
C1939      C1946   1.451       .  S
C1940      C1941   1.416       .  A
C1941      C1942   1.413       .  A
C1941      C1944   1.451       .  S
C1942      C1945   1.451       .  S
C1943      N1950   1.157       .  T
C1944      N1949   1.157       .  T
C1945      N1947   1.157       .  T
C1946      N1948   1.157       .  T
C1951      C1952   1.415       .  A
C1951      C1956   1.415       .  A
C1952      C1953   1.412       .  A
C1952      C1957   1.452       .  S
C1953      C1954   1.415       .  A
C1953      C1960   1.451       .  S
C1954      C1955   1.416       .  A
C1955      C1956   1.412       .  A
C1955      C1958   1.452       .  S
C1956      C1959   1.452       .  S
C1957      N1964   1.157       .  T
C1958      N1963   1.157   1_554  T
C1959      N1961   1.158       .  T
C1960      N1962   1.157       .  T
C1965      C1966   1.416       .  A
C1965      C1970   1.414       .  A
C1966      C1967   1.412       .  A
C1966      C1971   1.451       .  S
C1967      C1968   1.415       .  A
C1967      C1974   1.452       .  S
C1968      C1969   1.414       .  A
C1969      C1970   1.410       .  A
C1969      C1972   1.451       .  S
C1970      C1973   1.452       .  S
C1971      N1978   1.157       .  T
C1972      N1977   1.157       .  T
C1973      N1975   1.157       .  T
C1974      N1976   1.157       .  T
C1979      C1980   1.415       .  A
C1979      C1984   1.413       .  A
C1980      C1981   1.410       .  A
C1980      C1985   1.451       .  S
C1981      C1982   1.412       .  A
C1981      C1988   1.451       .  S
C1982      C1983   1.414       .  A
C1983      C1984   1.410       .  A
C1983      C1986   1.451       .  S
C1984      C1987   1.452       .  S
C1985      N1992   1.157       .  T
C1986      N1991   1.157       .  T
C1987      N1989   1.157       .  T
C1988      N1990   1.157       .  T
C1993      C1994   1.408       .  A
C1993      C1998   1.410       .  A
C1994      C1995   1.413       .  A
C1994      C1999   1.453       .  S
C1995      C1996   1.425       .  A
C1995      C2002   1.451       .  S
C1996      C1997   1.423       .  A
C1997      C1998   1.414       .  A
C1997      C2000   1.451       .  S
C1998      C2001   1.452       .  S
C1999      N2006   1.157       .  T
C2000      N2005   1.158       .  T
C2001      N2003   1.157       .  T
C2002      N2004   1.157       .  T
C2007      C2008   1.415       .  A
C2007      C2012   1.415       .  A
C2008      C2009   1.411       .  A
C2008      C2013   1.451       .  S
C2009      C2010   1.413       .  A
C2009      C2016   1.452       .  S
C2010      C2011   1.413       .  A
C2011      C2012   1.410       .  A
C2011      C2014   1.452       .  S
C2012      C2015   1.451       .  S
C2013      N2020   1.157       .  T
C2014      N2019   1.157       .  T
C2015      N2017   1.157       .  T
C2016      N2018   1.157       .  T
C2021      C2022   1.418       .  A
C2021      C2026   1.417       .  A
C2022      C2023   1.418       .  A
C2022      C2027   1.450       .  S
C2023      C2024   1.414       .  A
C2023      C2030   1.451       .  S
C2024      C2025   1.413       .  A
C2025      C2026   1.413       .  A
C2025      C2028   1.450       .  S
C2026      C2029   1.451       .  S
C2027      N2034   1.157   1_655  T
C2028      N2033   1.157       .  T
C2029      N2031   1.157       .  T
C2030      N2032   1.158   1_655  T
C2035      C2036   1.416       .  A
C2035      C2040   1.415       .  A
C2036      C2037   1.413       .  A
C2036      C2041   1.451       .  S
C2037      C2038   1.414       .  A
C2037      C2044   1.452   1_655  S
C2038      C2039   1.414       .  A
C2039      C2040   1.413       .  A
C2039      C2042   1.452       .  S
C2040      C2043   1.451       .  S
C2041      N2048   1.157       .  T
C2042      N2047   1.157       .  T
C2043      N2045   1.157       .  T
C2044      N2046   1.157       .  T
C2049      C2050   1.415       .  A
C2049      C2054   1.415       .  A
C2050      C2051   1.412       .  A
C2050      C2055   1.451       .  S
C2051      C2052   1.412       .  A
C2051      C2058   1.451       .  S
C2052      C2053   1.412       .  A
C2053      C2054   1.413       .  A
C2053      C2056   1.451       .  S
C2054      C2057   1.451       .  S
C2055      N2062   1.157       .  T
C2056      N2061   1.157       .  T
C2057      N2059   1.157       .  T
C2058      N2060   1.157       .  T
C2063      C2064   1.416       .  A
C2063      C2068   1.415       .  A
C2064      C2065   1.413       .  A
C2064      C2069   1.451       .  S
C2065      C2066   1.413       .  A
C2065      C2072   1.451       .  S
C2066      C2067   1.414       .  A
C2067      C2068   1.414       .  A
C2067      C2070   1.451       .  S
C2068      C2071   1.451       .  S
C2069      N2076   1.157       .  T
C2070      N2075   1.157       .  T
C2071      N2073   1.157       .  T
C2072      N2074   1.157       .  T
C2077      C2078   1.418       .  A
C2077      C2082   1.418       .  A
C2078      C2079   1.411       .  A
C2078      C2083   1.451       .  S
C2079      C2080   1.409       .  A
C2079      C2086   1.452       .  S
C2080      C2081   1.410       .  A
C2081      C2082   1.412       .  A
C2081      C2084   1.452       .  S
C2082      C2085   1.451       .  S
C2083      N2090   1.157       .  T
C2084      N2089   1.157       .  T
C2085      N2087   1.158       .  T
C2086      N2088   1.157   1_565  T
C2091      C2092   1.416       .  A
C2091      C2096   1.414       .  A
C2092      C2093   1.414       .  A
C2092      C2097   1.451       .  S
C2093      C2094   1.413       .  A
C2093      C2100   1.451       .  S
C2094      C2095   1.415       .  A
C2095      C2096   1.410       .  A
C2095      C2098   1.452       .  S
C2096      C2099   1.452       .  S
C2097      N2104   1.157       .  T
C2098      N2103   1.157       .  T
C2099      N2101   1.157       .  T
C2100      N2102   1.157       .  T
C2105      C2106   1.413       .  A
C2105      C2110   1.414       .  A
C2106      C2107   1.411       .  A
C2106      C2111   1.451       .  S
C2107      C2108   1.414       .  A
C2107      C2114   1.451       .  S
C2108      C2109   1.413       .  A
C2109      C2110   1.411       .  A
C2109      C2112   1.452       .  S
C2110      C2113   1.451       .  S
C2111      N2118   1.157       .  T
C2112      N2117   1.157       .  T
C2113      N2115   1.157       .  T
C2114      N2116   1.157       .  T
C2119      C2120   1.418       .  A
C2119      C2124   1.417       .  A
C2120      C2121   1.412       .  A
C2120      C2125   1.451       .  S
C2121      C2122   1.413       .  A
C2121      C2128   1.453       .  S
C2122      C2123   1.413   1_655  A
C2123      C2124   1.413   1_455  A
C2123      C2126   1.452       .  S
C2124      C2127   1.451       .  S
C2125      N2132   1.157       .  T
C2126      N2131   1.157       .  T
C2127      N2129   1.157       .  T
C2128      N2130   1.157   1_565  T
C2133      C2134   1.419       .  A
C2133      C2138   1.420       .  A
C2134      C2135   1.415       .  A
C2134      C2139   1.451       .  S
C2135      C2136   1.414       .  A
C2135      C2142   1.451       .  S
C2136      C2137   1.415       .  A
C2137      C2138   1.415       .  A
C2137      C2140   1.453       .  S
C2138      C2141   1.451       .  S
C2139      N2146   1.157       .  T
C2140      N2145   1.158       .  T
C2141      N2143   1.158       .  T
C2142      N2144   1.157       .  T
C2147      C2148   1.417       .  A
C2147      C2152   1.415       .  A
C2148      C2149   1.413       .  A
C2148      C2153   1.451       .  S
C2149      C2150   1.413       .  A
C2149      C2156   1.452       .  S
C2150      C2151   1.414       .  A
C2151      C2152   1.410       .  A
C2151      C2154   1.451       .  S
C2152      C2155   1.452       .  S
C2153      N2160   1.158       .  T
C2154      N2159   1.157       .  T
C2155      N2157   1.157       .  T
C2156      N2158   1.157       .  T
C2161      C2162   1.413       .  A
C2161      C2166   1.415       .  A
C2162      C2163   1.411       .  A
C2162      C2167   1.452       .  S
C2163      C2164   1.415       .  A
C2163      C2170   1.449       .  S
C2164      C2165   1.417       .  A
C2165      C2166   1.414       .  A
C2165      C2168   1.452       .  S
C2166      C2169   1.451       .  S
C2167      N2174   1.157       .  T
C2168      N2173   1.158       .  T
C2169      N2171   1.157       .  T
C2170      N2172   1.156       .  T
C2175      C2176   1.414       .  A
C2175      C2180   1.415       .  A
C2176      C2177   1.411       .  A
C2176      C2181   1.451       .  S
C2177      C2178   1.414       .  A
C2177      C2184   1.452       .  S
C2178      C2179   1.413       .  A
C2179      C2180   1.411       .  A
C2179      C2182   1.449       .  S
C2180      C2183   1.452       .  S
C2181      N2188   1.157       .  T
C2182      N2187   1.156       .  T
C2183      N2185   1.157       .  T
C2184      N2186   1.157       .  T
C2189      C2190   1.414       .  A
C2189      C2194   1.413       .  A
C2190      C2191   1.412       .  A
C2190      C2195   1.451       .  S
C2191      C2192   1.416       .  A
C2191      C2198   1.452       .  S
C2192      C2193   1.415       .  A
C2193      C2194   1.410       .  A
C2193      C2196   1.452       .  S
C2194      C2197   1.451       .  S
C2195      N2202   1.157       .  T
C2196      N2201   1.157       .  T
C2197      N2199   1.157       .  T
C2198      N2200   1.157       .  T
C2203      C2204   1.414       .  A
C2203      C2208   1.413       .  A
C2204      C2205   1.411       .  A
C2204      C2209   1.451       .  S
C2205      C2206   1.414       .  A
C2205      C2212   1.452       .  S
C2206      C2207   1.415       .  A
C2207      C2208   1.409       .  A
C2207      C2210   1.452       .  S
C2208      C2211   1.452       .  S
C2209      N2216   1.157       .  T
C2210      N2215   1.157       .  T
C2211      N2213   1.157       .  T
C2212      N2214   1.157       .  T
C2217      C2218   1.417       .  A
C2217      C2222   1.417       .  A
C2218      C2219   1.411       .  A
C2218      C2223   1.451       .  S
C2219      C2220   1.413       .  A
C2219      C2226   1.452       .  S
C2220      C2221   1.413       .  A
C2221      C2222   1.413       .  A
C2221      C2224   1.452       .  S
C2222      C2225   1.451       .  S
C2223      N2230   1.157       .  T
C2224      N2229   1.157       .  T
C2225      N2227   1.157       .  T
C2226      N2228   1.157       .  T
C2231      C2232   1.413       .  A
C2231      C2236   1.416       .  A
C2232      C2233   1.409       .  A
C2232      C2237   1.451       .  S
C2233      C2234   1.412       .  A
C2233      C2240   1.451       .  S
C2234      C2235   1.411       .  A
C2235      C2236   1.410       .  A
C2235      C2238   1.452       .  S
C2236      C2239   1.451       .  S
C2237      N2244   1.157       .  T
C2238      N2243   1.157       .  T
C2239      N2241   1.157       .  T
C2240      N2242   1.157       .  T
C2245      C2246   1.414       .  A
C2245      C2250   1.413       .  A
C2246      C2247   1.411       .  A
C2246      C2251   1.452       .  S
C2247      C2248   1.416       .  A
C2247      C2254   1.452       .  S
C2248      C2249   1.416       .  A
C2249      C2250   1.412       .  A
C2249      C2252   1.452       .  S
C2250      C2253   1.451       .  S
C2251      N2258   1.157       .  T
C2252      N2257   1.157       .  T
C2253      N2255   1.157       .  T
C2254      N2256   1.157       .  T
C2259      C2260   1.413       .  A
C2259      C2264   1.413       .  A
C2260      C2261   1.410       .  A
C2260      C2265   1.452       .  S
C2261      C2262   1.414       .  A
C2261      C2268   1.451       .  S
C2262      C2263   1.414       .  A
C2263      C2264   1.410       .  A
C2263      C2266   1.451       .  S
C2264      C2267   1.451       .  S
C2265      N2272   1.157       .  T
C2266      N2271   1.157       .  T
C2267      N2269   1.157       .  T
C2268      N2270   1.157       .  T
C2273      C2274   1.416       .  A
C2273      C2278   1.415       .  A
C2274      C2275   1.409       .  A
C2274      C2279   1.452       .  S
C2275      C2276   1.411       .  A
C2275      C2282   1.452       .  S
C2276      C2277   1.411       .  A
C2277      C2278   1.410       .  A
C2277      C2280   1.451       .  S
C2278      C2281   1.451       .  S
C2279      N2286   1.157       .  T
C2280      N2285   1.157       .  T
C2281      N2283   1.157       .  T
C2282      N2284   1.157       .  T
C2287      C2288   1.418       .  A
C2287      C2292   1.417       .  A
C2288      C2289   1.415       .  A
C2288      C2293   1.451       .  S
C2289      C2290   1.414       .  A
C2289      C2296   1.452       .  S
C2290      C2291   1.415       .  A
C2291      C2292   1.415       .  A
C2291      C2294   1.452       .  S
C2292      C2295   1.451       .  S
C2293      N2300   1.157       .  T
C2294      N2299   1.157   1_565  T
C2295      N2297   1.157       .  T
C2296      N2298   1.157       .  T
C2301      C2302   1.415       .  A
C2301      C2306   1.413       .  A
C2302      C2303   1.413       .  A
C2302      C2307   1.451       .  S
C2303      C2304   1.415       .  A
C2303      C2310   1.451       .  S
C2304      C2305   1.416       .  A
C2305      C2306   1.415       .  A
C2305      C2308   1.451       .  S
C2306      C2309   1.451       .  S
C2307      N2314   1.157       .  T
C2308      N2313   1.157       .  T
C2309      N2311   1.157       .  T
C2310      N2312   1.157       .  T
C2315      C2316   1.415       .  A
C2315      C2320   1.414       .  A
C2316      C2317   1.414       .  A
C2316      C2321   1.452       .  S
C2317      C2318   1.419       .  A
C2317      C2324   1.451       .  S
C2318      C2319   1.417       .  A
C2319      C2320   1.415       .  A
C2319      C2322   1.451       .  S
C2320      C2323   1.451       .  S
C2321      N2328   1.157       .  T
C2322      N2327   1.157       .  T
C2323      N2325   1.157       .  T
C2324      N2326   1.158       .  T
C2329      C2330   1.413       .  A
C2329      C2334   1.413       .  A
C2330      C2331   1.410       .  A
C2330      C2335   1.451       .  S
C2331      C2332   1.414       .  A
C2331      C2338   1.452       .  S
C2332      C2333   1.415       .  A
C2333      C2334   1.412       .  A
C2333      C2336   1.451       .  S
C2334      C2337   1.452       .  S
C2335      N2342   1.157       .  T
C2336      N2341   1.157       .  T
C2337      N2339   1.157       .  T
C2338      N2340   1.157       .  T
C2343      C2344   1.412       .  A
C2343      C2348   1.411       .  A
C2344      C2345   1.411       .  A
C2344      C2349   1.452       .  S
C2345      C2346   1.414       .  A
C2345      C2352   1.451       .  S
C2346      C2347   1.415       .  A
C2347      C2348   1.409       .  A
C2347      C2350   1.452       .  S
C2348      C2351   1.451       .  S
C2349      N2356   1.157       .  T
C2350      N2355   1.157       .  T
C2351      N2353   1.157       .  T
C2352      N2354   1.157       .  T
C2357      C2358   1.416       .  A
C2357      C2362   1.418       .  A
C2358      C2359   1.412       .  A
C2358      C2363   1.451       .  S
C2359      C2360   1.413       .  A
C2359      C2366   1.453       .  S
C2360      C2361   1.411       .  A
C2361      C2362   1.412       .  A
C2361      C2364   1.451       .  S
C2362      C2365   1.451       .  S
C2363      N2370   1.157       .  T
C2364      N2369   1.157       .  T
C2365      N2367   1.157       .  T
C2366      N2368   1.157       .  T
C2371      C2372   1.415       .  A
C2371      C2376   1.416       .  A
C2372      C2373   1.411       .  A
C2372      C2377   1.451       .  S
C2373      C2374   1.413       .  A
C2373      C2380   1.452       .  S
C2374      C2375   1.411       .  A
C2375      C2376   1.409       .  A
C2375      C2378   1.452       .  S
C2376      C2379   1.451       .  S
C2377      N2384   1.157       .  T
C2378      N2383   1.157       .  T
C2379      N2381   1.157       .  T
C2380      N2382   1.157       .  T
C2385      C2386   1.411       .  A
C2385      C2390   1.412       .  A
C2386      C2387   1.409       .  A
C2386      C2391   1.451       .  S
C2387      C2388   1.415       .  A
C2387      C2394   1.452       .  S
C2388      C2389   1.414       .  A
C2389      C2390   1.410       .  A
C2389      C2392   1.451       .  S
C2390      C2393   1.451       .  S
C2391      N2398   1.157       .  T
C2392      N2397   1.157       .  T
C2393      N2395   1.157       .  T
C2394      N2396   1.157       .  T
C2399      C2400   1.412       .  A
C2399      C2404   1.413       .  A
C2400      C2401   1.411       .  A
C2400      C2405   1.451       .  S
C2401      C2402   1.414       .  A
C2401      C2408   1.451       .  S
C2402      C2403   1.415       .  A
C2403      C2404   1.408       .  A
C2403      C2406   1.451       .  S
C2404      C2407   1.452       .  S
C2405      N2412   1.157       .  T
C2406      N2411   1.157       .  T
C2407      N2409   1.157       .  T
C2408      N2410   1.157       .  T
C2413      C2414   1.415       .  A
C2413      C2418   1.413       .  A
C2414      C2415   1.411       .  A
C2414      C2419   1.452       .  S
C2415      C2416   1.415       .  A
C2415      C2422   1.452       .  S
C2416      C2417   1.416       .  A
C2417      C2418   1.413       .  A
C2417      C2420   1.452       .  S
C2418      C2421   1.451       .  S
C2419      N2426   1.157       .  T
C2420      N2425   1.157       .  T
C2421      N2423   1.157       .  T
C2422      N2424   1.157       .  T
C2427      C2428   1.412       .  A
C2427      C2432   1.411       .  A
C2428      C2429   1.410       .  A
C2428      C2433   1.452       .  S
C2429      C2430   1.416       .  A
C2429      C2436   1.451       .  S
C2430      C2431   1.416       .  A
C2431      C2432   1.410       .  A
C2431      C2434   1.451       .  S
C2432      C2435   1.451       .  S
C2433      N2440   1.157       .  T
C2434      N2439   1.157       .  T
C2435      N2437   1.157       .  T
C2436      N2438   1.157       .  T
C2441      C2442   1.416       .  A
C2441      C2446   1.415       .  A
C2442      C2443   1.412       .  A
C2442      C2447   1.451       .  S
C2443      C2444   1.410       .  A
C2443      C2450   1.451       .  S
C2444      C2445   1.413       .  A
C2445      C2446   1.409       .  A
C2445      C2448   1.452       .  S
C2446      C2449   1.452       .  S
C2447      N2454   1.157       .  T
C2448      N2453   1.157       .  T
C2449      N2451   1.157       .  T
C2450      N2452   1.157       .  T
C2455      C2456   1.414       .  A
C2455      C2460   1.416       .  A
C2456      C2457   1.410       .  A
C2456      C2461   1.451       .  S
C2457      C2458   1.413       .  A
C2457      C2464   1.452       .  S
C2458      C2459   1.413       .  A
C2459      C2460   1.411       .  A
C2459      C2462   1.452       .  S
C2460      C2463   1.452       .  S
C2461      N2468   1.157       .  T
C2462      N2467   1.157       .  T
C2463      N2465   1.157       .  T
C2464      N2466   1.157       .  T
C2469      C2470   1.415       .  A
C2469      C2474   1.416       .  A
C2470      C2471   1.412       .  A
C2470      C2475   1.451       .  S
C2471      C2472   1.415       .  A
C2471      C2478   1.451       .  S
C2472      C2473   1.417       .  A
C2473      C2474   1.411       .  A
C2473      C2476   1.452       .  S
C2474      C2477   1.452       .  S
C2475      N2482   1.157       .  T
C2476      N2481   1.158       .  T
C2477      N2479   1.158       .  T
C2478      N2480   1.157       .  T
C2483      C2484   1.415       .  A
C2483      C2488   1.415       .  A
C2484      C2485   1.410       .  A
C2484      C2489   1.452       .  S
C2485      C2486   1.414       .  A
C2485      C2492   1.451       .  S
C2486      C2487   1.413       .  A
C2487      C2488   1.410       .  A
C2487      C2490   1.452       .  S
C2488      C2491   1.452       .  S
C2489      N2496   1.157       .  T
C2490      N2495   1.157       .  T
C2491      N2493   1.157       .  T
C2492      N2494   1.157       .  T
C2497      C2498   1.414       .  A
C2497      C2502   1.413       .  A
C2498      C2499   1.413       .  A
C2498      C2503   1.452       .  S
C2499      C2500   1.419       .  A
C2499      C2506   1.452       .  S
C2500      C2501   1.418       .  A
C2501      C2502   1.413       .  A
C2501      C2504   1.452       .  S
C2502      C2505   1.452       .  S
C2503      N2510   1.157       .  T
C2504      N2509   1.157       .  T
C2505      N2507   1.157       .  T
C2506      N2508   1.157       .  T
C2511      C2512   1.408       .  A
C2511      C2516   1.408       .  A
C2512      C2513   1.413       .  A
C2512      C2517   1.453       .  S
C2513      C2514   1.427       .  A
C2513      C2520   1.452       .  S
C2514      C2515   1.426       .  A
C2515      C2516   1.416       .  A
C2515      C2518   1.451   1_655  S
C2516      C2519   1.452   1_655  S
C2517      N2524   1.157       .  T
C2518      N2523   1.157       .  T
C2519      N2521   1.157       .  T
C2520      N2522   1.158       .  T
C2525      C2526   1.414       .  A
C2525      C2530   1.416       .  A
C2526      C2527   1.410       .  A
C2526      C2531   1.452       .  S
C2527      C2528   1.414       .  A
C2527      C2534   1.452       .  S
C2528      C2529   1.412       .  A
C2529      C2530   1.412       .  A
C2529      C2532   1.451       .  S
C2530      C2533   1.451       .  S
C2531      N2538   1.157       .  T
C2532      N2537   1.157       .  T
C2533      N2535   1.157       .  T
C2534      N2536   1.157       .  T
C2539      C2540   1.417       .  A
C2539      C2544   1.417       .  A
C2540      C2541   1.409       .  A
C2540      C2545   1.451       .  S
C2541      C2542   1.412       .  A
C2541      C2548   1.453   1_655  S
C2542      C2543   1.413       .  A
C2543      C2544   1.413       .  A
C2543      C2546   1.451       .  S
C2544      C2547   1.451       .  S
C2545      N2552   1.157       .  T
C2546      N2551   1.157       .  T
C2547      N2549   1.157       .  T
C2548      N2550   1.157       .  T
C2553      C2554   1.415       .  A
C2553      C2558   1.417       .  A
C2554      C2555   1.411       .  A
C2554      C2559   1.452       .  S
C2555      C2556   1.415       .  A
C2555      C2562   1.452       .  S
C2556      C2557   1.414       .  A
C2557      C2558   1.414       .  A
C2557      C2560   1.451       .  S
C2558      C2561   1.451       .  S
C2559      N2566   1.157       .  T
C2560      N2565   1.157       .  T
C2561      N2563   1.157       .  T
C2562      N2564   1.157       .  T
C2567      C2568   1.414       .  A
C2567      C2572   1.415       .  A
C2568      C2569   1.412       .  A
C2568      C2573   1.451       .  S
C2569      C2570   1.414       .  A
C2569      C2576   1.451       .  S
C2570      C2571   1.415       .  A
C2571      C2572   1.411       .  A
C2571      C2574   1.452       .  S
C2572      C2575   1.452       .  S
C2573      N2580   1.157       .  T
C2574      N2579   1.157       .  T
C2575      N2577   1.157       .  T
C2576      N2578   1.157       .  T
C2581      C2582   1.414       .  A
C2581      C2586   1.414       .  A
C2582      C2583   1.412   1_655  A
C2582      C2587   1.451       .  S
C2583      C2584   1.414       .  A
C2583      C2590   1.452       .  S
C2584      C2585   1.415   1_455  A
C2585      C2586   1.412       .  A
C2585      C2588   1.452       .  S
C2586      C2589   1.451       .  S
C2587      N2594   1.157       .  T
C2588      N2593   1.157       .  T
C2589      N2591   1.157       .  T
C2590      N2592   1.157       .  T
C2595      C2596   1.416       .  A
C2595      C2600   1.417       .  A
C2596      C2597   1.413       .  A
C2596      C2601   1.452       .  S
C2597      C2598   1.415       .  A
C2597      C2604   1.451       .  S
C2598      C2599   1.413       .  A
C2599      C2600   1.414       .  A
C2599      C2602   1.451       .  S
C2600      C2603   1.451       .  S
C2601      N2608   1.157       .  T
C2602      N2607   1.157       .  T
C2603      N2605   1.157       .  T
C2604      N2606   1.157       .  T
C2609      C2610   1.413       .  A
C2609      C2614   1.414       .  A
C2610      C2611   1.414       .  A
C2610      C2615   1.451       .  S
C2611      C2612   1.417       .  A
C2611      C2618   1.451       .  S
C2612      C2613   1.416       .  A
C2613      C2614   1.412       .  A
C2613      C2616   1.452       .  S
C2614      C2617   1.451       .  S
C2615      N2622   1.157       .  T
C2616      N2621   1.157       .  T
C2617      N2619   1.157       .  T
C2618      N2620   1.157       .  T
C2623      C2624   1.418       .  A
C2623      C2628   1.419       .  A
C2624      C2625   1.413       .  A
C2624      C2629   1.451       .  S
C2625      C2626   1.413       .  A
C2625      C2632   1.452       .  S
C2626      C2627   1.412       .  A
C2627      C2628   1.412       .  A
C2627      C2630   1.453       .  S
C2628      C2631   1.452       .  S
C2629      N2636   1.158       .  T
C2630      N2635   1.157       .  T
C2631      N2633   1.157       .  T
C2632      N2634   1.157       .  T
C2637      C2638   1.414       .  A
C2637      C2642   1.416       .  A
C2638      C2639   1.410       .  A
C2638      C2643   1.452       .  S
C2639      C2640   1.414       .  A
C2639      C2646   1.451       .  S
C2640      C2641   1.412       .  A
C2641      C2642   1.410       .  A
C2641      C2644   1.452       .  S
C2642      C2645   1.451       .  S
C2643      N2650   1.157       .  T
C2644      N2649   1.157       .  T
C2645      N2647   1.157       .  T
C2646      N2648   1.157       .  T
C2651      C2652   1.418       .  A
C2651      C2656   1.418       .  A
C2652      C2653   1.414       .  A
C2652      C2657   1.451       .  S
C2653      C2654   1.414       .  A
C2653      C2660   1.451       .  S
C2654      C2655   1.414       .  A
C2655      C2656   1.412       .  A
C2655      C2658   1.452       .  S
C2656      C2659   1.452       .  S
C2657      N2664   1.157       .  T
C2658      N2663   1.157       .  T
C2659      N2661   1.157       .  T
C2660      N2662   1.157       .  T
