geometry optimzed in LAMMPS
_audit_creation_date              2020-11-30 
_audit_creation_method            'lammps2cif' 
_symmetry_space_group_name_H-M    'P1' 
_symmetry_Int_Tables_number       1 
_symmetry_cell_setting            triclinic 
loop_ 
_symmetry_equiv_pos_as_xyz 
  x,y,z 
_cell_length_a                    22.41102295 
_cell_length_b                    23.667478759921515 
_cell_length_c                    25.84635593519747 
_cell_angle_alpha                 91.16904482478712 
_cell_angle_beta                  90.09626890783964 
_cell_angle_gamma                 90.20560124398202 
loop_ 
_atom_site_label 
_atom_site_type_symbol 
_atom_site_fract_x 
_atom_site_fract_y 
_atom_site_fract_z 
_atom_site_charge 
C1          C  0.31386454  0.76279175  0.01840384     0.87400
C2          C  0.30600411  0.71380590  0.97904236    -0.52800
C3          C  0.25171407  0.70974841  0.95574658     0.10400
C4          C  0.20813460  0.75748872  0.97403205     0.21300
C5          C  0.29903006  0.81457093  0.98493042    -0.53500
C6          C  0.24388495  0.81255277  0.95986047     0.10500
C7          C  0.26114786  0.76020940  0.05563983    -0.53100
C8          C  0.20586472  0.75517419  0.03495357     0.11000
H9          H  0.34311428  0.68743259  0.96660326     0.15600
H10         H  0.16299076  0.75356412  0.95736767     0.01300
H11         H  0.33209383  0.84572816  0.97546052     0.15900
H12         H  0.26790490  0.76255264  0.09731302     0.15600
C13         C  0.21621669  0.79404894  0.44128947     0.87400
C14         C  0.16620969  0.78571827  0.48069074    -0.52800
C15         C  0.17163044  0.73841326  0.51099026     0.10400
C16         C  0.22932215  0.70381344  0.49833993     0.21300
C17         C  0.27381225  0.79400672  0.47482519    -0.53500
C18         C  0.27965272  0.74777685  0.50577119     0.10500
C19         C  0.21920791  0.73798953  0.41157530    -0.53100
C20         C  0.22866150  0.69106530  0.43945633     0.11000
H21         H  0.13116107  0.81682231  0.48585628     0.15600
H22         H  0.23543902  0.66500569  0.52082586     0.01300
H23         H  0.30599004  0.82834146  0.47596024     0.15900
H24         H  0.22290619  0.73576704  0.36982905     0.15600
C25         C  0.82585519  0.26722219  0.98374130     0.87400
C26         C  0.80614497  0.31590731  0.02021742    -0.52800
C27         C  0.75519127  0.30581257  0.04877173     0.10400
C28         C  0.72830020  0.24615336  0.03613096     0.21300
C29         C  0.83069561  0.21576168  0.01985168    -0.53500
C30         C  0.78028038  0.20547401  0.04820470     0.10500
C31         C  0.77110902  0.25275221  0.95096641    -0.53100
C32         C  0.72008844  0.24223783  0.97667966     0.11000
H33         H  0.83412269  0.35297906  0.02606428     0.15600
H34         H  0.68625864  0.23560087  0.05576391     0.01300
H35         H  0.86980373  0.18961172  0.02397645     0.15900
H36         H  0.77233368  0.25127814  0.90899034     0.15600
C37         C  0.79788997  0.23425361  0.46924064     0.87400
C38         C  0.78880712  0.28453782  0.50761232    -0.52800
C39         C  0.74188068  0.28055040  0.54220170     0.10400
C40         C  0.70708778  0.22386172  0.53329961     0.21300
C41         C  0.80248044  0.18274840  0.50586166    -0.53500
C42         C  0.75588507  0.17789838  0.54040491     0.10500
C43         C  0.73711161  0.22407341  0.44324637    -0.53100
C44         C  0.68925229  0.22047061  0.47523448     0.11000
H45         H  0.82237451  0.31747591  0.51016523     0.15600
H46         H  0.66701086  0.21800077  0.55708426     0.01300
H47         H  0.83895904  0.15302984  0.50612836     0.15900
H48         H  0.73144384  0.22273926  0.40147508     0.15600
N49         N  0.02459623  0.74944669  0.20056510    -0.02500
C50         C  0.00252880  0.70358309  0.22701573     0.00100
C51         C  0.96054230  0.72069667  0.26290395    -0.22800
C52         C  0.95664063  0.77802586  0.26024565    -0.23000
C53         C  0.99661677  0.79515597  0.22312593     0.00000
H54         H  0.93678763  0.69429633  0.28976348     0.13700
H55         H  0.93125287  0.80511236  0.28625287     0.13800
N56         N  0.01100905  0.74874747  0.68622404    -0.02500
C57         C  0.98052506  0.79774195  0.69360385     0.00100
C58         C  0.92918881  0.78835722  0.72174245    -0.21200
C59         C  0.92933243  0.73263679  0.73453885    -0.23000
C60         C  0.98000907  0.70953546  0.71286508     0.00000
H61         H  0.89974689  0.82023944  0.73799964     0.13700
H62         H  0.89860750  0.71228839  0.76059748     0.13800
N63         N  0.72086618  0.45218037  0.23092852    -0.02500
C64         C  0.66893794  0.47032297  0.25284274     0.00100
C65         C  0.67917818  0.50971344  0.29186294    -0.22800
C66         C  0.73912153  0.51608362  0.29528302    -0.23000
C67         C  0.76385662  0.48003283  0.25852572     0.00000
H68         H  0.64657540  0.53002421  0.31672105     0.13700
H69         H  0.76260673  0.54194394  0.32380341     0.13800
N70         N  0.74636296  0.43356569  0.72507306    -0.02500
C71         C  0.79744704  0.45290628  0.74958061     0.00100
C72         C  0.78188480  0.48623682  0.79205566    -0.22800
C73         C  0.72094943  0.48773085  0.79457319    -0.23000
C74         C  0.69927038  0.45517140  0.75376337     0.00000
H75         H  0.81199113  0.50720755  0.81911264     0.13700
H76         H  0.69507945  0.50973022  0.82396523     0.13800
N77         N  0.46768774  0.75449499  0.19948835    -0.02500
C78         C  0.50219287  0.71073428  0.21792329     0.00100
C79         C  0.54245232  0.73168161  0.25400927    -0.22800
C80         C  0.53143714  0.78792427  0.26117694    -0.23000
C81         C  0.48527430  0.80187923  0.22854537     0.00000
H82         H  0.57221126  0.70704334  0.27762332     0.13700
H83         H  0.55412497  0.81571084  0.28863669     0.13800
N84         N  0.44791643  0.74045164  0.67758311    -0.02500
C85         C  0.48301274  0.78719946  0.68450478     0.00100
C86         C  0.54166542  0.77221961  0.69264307    -0.22800
C87         C  0.54282282  0.71487643  0.69524815    -0.23000
C88         C  0.48498745  0.69651817  0.68793589     0.00000
H89         H  0.57775709  0.80023219  0.70438630     0.13700
H90         H  0.57999643  0.69005358  0.70879075     0.13800
N91         N  0.77246254  0.05554153  0.22390908    -0.02500
C92         C  0.72503378  0.03038095  0.24674132     0.00100
C93         C  0.74298575  0.99931432  0.28869474    -0.22800
C94         C  0.80341438  0.00510772  0.29250744    -0.23000
C95         C  0.82022657  0.03939020  0.25263760     0.00000
H96         H  0.71445237  0.97759783  0.31566240     0.13700
H97         H  0.83193925  0.98709167  0.32167315     0.13800
N98         N  0.74640295  0.04763563  0.73043214    -0.02500
C99         C  0.79435833  0.02936295  0.75948117     0.00100
C100        C  0.77406933  0.00094334  0.80207110    -0.22800
C101        C  0.71306873  0.00090313  0.80009898    -0.23000
C102        C  0.69593295  0.02954466  0.75633170     0.00000
H103        H  0.80098726  0.98258603  0.83213478     0.13700
H104        H  0.68398291  0.98258902  0.82870704     0.13800
N105        N  0.97246021  0.27126141  0.29831555    -0.02500
C106        C  0.98772442  0.31839763  0.27027998     0.00100
C107        C  0.03273617  0.30552053  0.23575254    -0.22800
C108        C  0.04540841  0.24963381  0.24098775    -0.23000
C109        C  0.00748139  0.22888694  0.27813456     0.00000
H110        H  0.05302697  0.33359005  0.20822557     0.13700
H111        H  0.07458057  0.22509645  0.21593341     0.13800
N112        N  0.98343317  0.24792936  0.81069590    -0.02500
C113        C  0.00716035  0.19620495  0.80023170     0.00100
C114        C  0.04913080  0.19970123  0.76131857    -0.22800
C115        C  0.04912230  0.25433247  0.74521906    -0.23000
C116        C  0.00807829  0.28292920  0.77545232     0.00000
H117        H  0.07085181  0.16470858  0.74148837     0.13700
H118        H  0.07303067  0.27047974  0.71226165     0.13800
O119        O  0.97613122  0.05311788  0.11997018    -0.79900
O120        O  0.98741057  0.04903251  0.36356501    -0.64600
O121        O  0.01811674  0.05165022  0.22017787    -1.11200
C122        C  0.01737839  0.85445339  0.22614088     1.06900
O123        O  0.01344821  0.95997304  0.38241327    -0.77800
O124        O  0.10020442  0.96208170  0.31030266    -0.65400
Ni125      Ni  0.96917403  0.10060342  0.18024677     1.34900
C126        C  0.12114686  0.97185597  0.26587659     0.85700
O127        O  0.01740753  0.13113938  0.29926640    -0.78400
O128        O  0.95667107  0.15529038  0.23581422    -0.88700
C129        C  0.99686394  0.00965012  0.39495345     0.85300
O130        O  0.89971308  0.06090792  0.19815500    -0.66900
O131        O  0.05202745  0.86864955  0.26288014    -0.86100
C132        C  0.88215241  0.05514054  0.24411576     0.86100
C133        C  0.99104986  0.16863906  0.27316209     1.07700
H134        H  0.94393311  0.96232494  0.28433083     0.39500
O135        O  0.98580855  0.97124625  0.28083424    -1.08800
O136        O  0.09126225  0.96379053  0.22398652    -0.65500
Ni137      Ni  0.00631976  0.97194958  0.21005965     1.26300
O138        O  0.91617832  0.06277231  0.28342595    -0.65700
O139        O  0.99116177  0.89217345  0.20075637    -0.78000
C140        C  0.00175946  0.00690623  0.10805305     0.85500
O141        O  0.02570020  0.97440299  0.13995566    -0.65200
Ni142      Ni  0.03082380  0.91846504  0.32041821     1.27400
Ni143      Ni  0.00129489  0.05117407  0.29172626     1.26100
H144        H  0.05929707  0.06223356  0.21499097     0.40000
O145        O  0.96199593  0.07584265  0.63480500    -0.79900
O146        O  0.96729253  0.00293122  0.86804575    -0.64600
O147        O  0.00334653  0.04678457  0.73200402    -1.11200
C148        C  0.00939105  0.85271930  0.70076688     1.06900
O149        O  0.02631431  0.92668343  0.87073772    -0.77800
O150        O  0.10547305  0.93901212  0.79399295    -0.65400
Ni151      Ni  0.94954438  0.10222726  0.70398217     1.34900
C152        C  0.12362189  0.95589634  0.75063652     0.85700
O153        O  0.99591090  0.10190394  0.82654265    -0.78400
O154        O  0.93273741  0.13453729  0.77097331    -0.88700
C155        C  0.99593105  0.96581697  0.89214050     0.85300
O156        O  0.87968333  0.05609412  0.70885394    -0.66900
O157        O  0.04772301  0.85799635  0.73654038    -0.86100
C158        C  0.86032499  0.03942976  0.75202515     0.86100
C159        C  0.97362969  0.14338799  0.80359153     1.07700
H160        H  0.94045013  0.93596017  0.77474131     0.39500
O161        O  0.98072888  0.95058208  0.77338797    -1.08800
O162        O  0.08697510  0.96358503  0.71270252    -0.65500
Ni163      Ni  0.99895267  0.97144521  0.70472587     1.26300
O164        O  0.89606716  0.03270481  0.79083590    -0.65700
O165        O  0.98722931  0.89561233  0.67968867    -0.78000
C166        C  0.98943316  0.03504638  0.61305680     0.85500
O167        O  0.01340894  0.99431557  0.63640462    -0.65200
Ni168      Ni  0.03438750  0.89575357  0.80231684     1.27400
Ni169      Ni  0.98406759  0.02586435  0.80062851     1.26100
H170        H  0.04379010  0.06092972  0.73077780     0.40000
N171        N  0.23071183  0.96726511  0.28449570    -0.02500
C172        C  0.27913992  0.99381015  0.26461048     0.00100
C173        C  0.26038537  0.03645329  0.23228232    -0.22800
C174        C  0.19950193  0.03441601  0.23007216    -0.23000
C175        C  0.18263701  0.99165051  0.26211333     0.00000
H176        H  0.28847950  0.06201470  0.20791583     0.13700
H177        H  0.17097372  0.05939094  0.20571518     0.13800
N178        N  0.23728638  0.94694052  0.77136089    -0.02500
C179        C  0.18942151  0.96551926  0.74246844     0.00100
C180        C  0.20984427  0.99310728  0.69943279    -0.22800
C181        C  0.27091598  0.99168574  0.70089392    -0.23000
C182        C  0.28765092  0.96290611  0.74472689     0.00000
H183        H  0.18302708  0.01146516  0.66926775     0.13700
H184        H  0.30022166  0.00862427  0.67173333     0.13800
O185        O  0.49494182  0.95208274  0.12925418    -0.79900
O186        O  0.46991790  0.95130447  0.35791386    -0.64600
O187        O  0.46140778  0.00302187  0.22043412    -1.11200
C188        C  0.66230377  0.04504235  0.24150658     1.06900
O189        O  0.54476539  0.00792206  0.38615231    -0.77800
O190        O  0.53647159  0.09836859  0.32276627    -0.65400
Ni191      Ni  0.42316077  0.95705643  0.16878503     1.34900
C192        C  0.52641231  0.12313061  0.28067012     0.85700
O193        O  0.37762572  0.96707486  0.29166078    -0.78400
O194        O  0.35102882  0.96255700  0.20714790    -0.88700
C195        C  0.50208817  0.97349219  0.39357025     0.85300
O196        O  0.43500155  0.88060723  0.18999823    -0.66900
O197        O  0.63893735  0.07131913  0.27905565    -0.86100
C198        C  0.46332058  0.86247155  0.22841547     0.86100
C199        C  0.33889470  0.96986776  0.25512964     1.07700
H200        H  0.57012160  0.95258712  0.28031001     0.39500
O201        O  0.54921320  0.98822146  0.28135094    -1.08800
O202        O  0.53349266  0.09720043  0.23611769    -0.65500
Ni203      Ni  0.54472984  0.01614286  0.21284216     1.26300
O204        O  0.47719539  0.89544179  0.26674878    -0.65700
O205        O  0.62999378  0.02225927  0.20672593    -0.78000
C206        C  0.51820185  0.99630871  0.11111211     0.85500
O207        O  0.53605575  0.03605194  0.14151930    -0.65200
Ni208      Ni  0.58968151  0.03717016  0.33010997     1.27400
Ni209      Ni  0.46428498  0.97489973  0.28799116     1.26100
H210        H  0.44106318  0.03896534  0.22162372     0.40000
O211        O  0.44759937  0.94935727  0.87295896    -0.79900
O212        O  0.45316483  0.98250919  0.63813547    -0.64600
O213        O  0.49932701  0.94602073  0.77313057    -1.11200
C214        C  0.51538201  0.14477740  0.78879848     1.06900
O215        O  0.53559465  0.03326991  0.62752070    -0.77800
O216        O  0.61227153  0.06534744  0.70644773    -0.65400
Ni217      Ni  0.44880795  0.89771896  0.81313152     1.34900
C218        C  0.63007197  0.03965946  0.74622872     0.85700
O219        O  0.47079463  0.88522639  0.68357211    -0.78400
O220        O  0.45087571  0.84059164  0.75770425    -0.88700
C221        C  0.49257852  0.00304822  0.60944490     0.85300
O222        O  0.36966177  0.92312660  0.79388377    -0.66900
O223        O  0.52754914  0.14458236  0.74026617    -0.86100
C224        C  0.35261181  0.94941874  0.75419013     0.86100
C225        C  0.46390843  0.84067698  0.70935275     1.07700
H226        H  0.44400047  0.05623325  0.72874177     0.39500
O227        O  0.48296542  0.03894169  0.72682267    -1.08800
O228        O  0.59315598  0.02180795  0.78014142    -0.65500
Ni229      Ni  0.50757947  0.02295758  0.79469452     1.26300
O230        O  0.38957452  0.96505094  0.71970070    -0.65700
O231        O  0.51052983  0.10056725  0.81553269    -0.78000
C232        C  0.49088604  0.97909514  0.89111590     0.85500
O233        O  0.52806055  0.00338740  0.86237989    -0.65200
Ni234      Ni  0.53225655  0.08685664  0.68590201     1.27400
Ni235      Ni  0.47448055  0.96247652  0.70520235     1.26100
H236        H  0.53831341  0.92877030  0.77129572     0.40000
N237        N  0.51888777  0.23054597  0.31140853    -0.02500
C238        C  0.48471250  0.27381861  0.29102991     0.00100
C239        C  0.44513545  0.25175250  0.25482724    -0.22800
C240        C  0.45627680  0.19549600  0.24894199    -0.23000
C241        C  0.50144525  0.18251738  0.28266494     0.00000
H242        H  0.41610417  0.27570172  0.22996476     0.13700
H243        H  0.43513352  0.16711684  0.22103917     0.13800
N244        N  0.53330144  0.24300913  0.82362366    -0.02500
C245        C  0.49655290  0.19843951  0.81296901     0.00100
C246        C  0.43929315  0.21646252  0.80332668    -0.22800
C247        C  0.44082957  0.27403650  0.80534044    -0.23000
C248        C  0.49908021  0.28950872  0.81593041     0.00000
H249        H  0.40260866  0.19090705  0.78859956     0.13700
H250        H  0.40560195  0.30144691  0.79211126     0.13800
O251        O  0.97641144  0.54575688  0.12480717    -0.79900
O252        O  0.03622111  0.55672293  0.35328712    -0.64600
O253        O  0.02712142  0.50414158  0.21210351    -1.11200
C254        C  0.82765020  0.46858558  0.26106158     1.06900
O255        O  0.00169461  0.47208747  0.36728458    -0.77800
O256        O  0.94302559  0.39532756  0.31526996    -0.65400
Ni257      Ni  0.05326476  0.54846819  0.15652766     1.34900
C258        C  0.96348171  0.37702818  0.27289409     0.85700
O259        O  0.11927901  0.54630353  0.27480104    -0.78400
O260        O  0.13015125  0.55101865  0.18777273    -0.88700
C261        C  0.02208004  0.51822274  0.38489467     0.85300
O262        O  0.03628738  0.62340437  0.17948180    -0.66900
O263        O  0.84792642  0.46652166  0.30720976    -0.86100
C264        C  0.01974090  0.64280171  0.22285171     0.86100
C265        C  0.15102612  0.54587650  0.23359891     1.07700
H266        H  0.92805181  0.55023531  0.28425106     0.39500
O267        O  0.95068278  0.51556194  0.28257037    -1.08800
O268        O  0.96639505  0.40770858  0.23256408    -0.65500
Ni269      Ni  0.94431347  0.48487308  0.21437458     1.26300
O270        O  0.01576654  0.61200856  0.26309628    -0.65700
O271        O  0.85990530  0.46907107  0.22026038    -0.78000
C272        C  0.95554993  0.49859701  0.10931417     0.85500
O273        O  0.94249480  0.46122040  0.14236144    -0.65200
Ni274      Ni  0.92475614  0.47002562  0.33762497     1.27400
Ni275      Ni  0.03412419  0.53373022  0.28065138     1.26100
H276        H  0.04998030  0.46961450  0.21026947     0.40000
O277        O  0.03375430  0.53007439  0.87602578    -0.79900
O278        O  0.02615683  0.52766198  0.63642540    -0.64600
O279        O  0.98132595  0.53854178  0.77717203    -1.11200
C280        C  0.98813948  0.33963172  0.76166294     1.06900
O281        O  0.95175144  0.46842985  0.61852677    -0.77800
O282        O  0.88044211  0.42381061  0.69423815    -0.65400
Ni283      Ni  0.02567930  0.58720729  0.82362683     1.34900
C284        C  0.86258525  0.44191199  0.73816918     0.85700
O285        O  0.99893303  0.61385614  0.69682755    -0.78400
O286        O  0.01557909  0.64934749  0.77689926    -0.88700
C287        C  0.99263262  0.50244625  0.60421471     0.85300
O288        O  0.10654504  0.57193639  0.80049424    -0.66900
O289        O  0.97254222  0.34642787  0.71448650    -0.86100
C290        C  0.12541659  0.55236874  0.75741966     0.86100
C291        C  0.00164449  0.65452389  0.72919061     1.07700
H292        H  0.04778192  0.44282874  0.71443108     0.39500
O293        O  0.00700378  0.45583838  0.71640881    -1.08800
O294        O  0.89918720  0.45405920  0.77469327    -0.65500
Ni295      Ni  0.98440031  0.45894901  0.78713540     1.26300
O296        O  0.08982666  0.53934537  0.72036608    -0.65700
O297        O  0.99132921  0.37930337  0.79541634    -0.78000
C298        C  0.99324536  0.49564711  0.89020553     0.85500
O299        O  0.96370845  0.46603168  0.85790486    -0.65200
Ni300      Ni  0.96101366  0.40951024  0.66936877     1.27400
Ni301      Ni  0.00492279  0.53496386  0.70660807     1.26100
H302        H  0.94029655  0.55090976  0.77847386     0.40000
N303        N  0.25881621  0.54533872  0.26759388    -0.02500
C304        C  0.30925188  0.52470525  0.24452221     0.00100
C305        C  0.29614160  0.49429067  0.19997808    -0.22800
C306        C  0.23623112  0.49709702  0.19373174    -0.23000
C307        C  0.21411234  0.52938718  0.23459142     0.00000
H308        H  0.32737216  0.47467218  0.17334084     0.13700
H309        H  0.21142304  0.47942142  0.16121471     0.13800
N310        N  0.24082214  0.55774296  0.77494512    -0.02500
C311        C  0.19063604  0.54038170  0.74797651     0.00100
C312        C  0.20727857  0.50728715  0.70571615    -0.22800
C313        C  0.26807715  0.50370793  0.70584164    -0.23000
C314        C  0.28867510  0.53482252  0.74798459     0.00000
H315        H  0.17801965  0.48768237  0.67715680     0.13700
H316        H  0.29468737  0.48132026  0.67724744     0.13800
O317        O  0.51083453  0.43366495  0.12254966    -0.79900
O318        O  0.50596410  0.46345711  0.36538645    -0.64600
O319        O  0.47505333  0.45013154  0.22262906    -1.11200
C320        C  0.48419055  0.65043363  0.22584040     1.06900
O321        O  0.46334056  0.54784531  0.38189134    -0.77800
O322        O  0.38636549  0.55094927  0.30281876    -0.65400
Ni323      Ni  0.52093918  0.39374287  0.18535536     1.34900
C324        C  0.37120124  0.53919290  0.25676175     0.85700
O325        O  0.47487865  0.37521938  0.30471155    -0.78400
O326        O  0.53521376  0.34411490  0.24336386    -0.88700
C327        C  0.48656952  0.50174127  0.39576524     0.85300
O328        O  0.59265286  0.43360726  0.19861671    -0.66900
O329        O  0.44848217  0.64097883  0.26285584    -0.86100
C330        C  0.60893544  0.44861591  0.24368724     0.86100
C331        C  0.50135192  0.33440995  0.28160807     1.07700
H332        H  0.54647715  0.54458316  0.28918682     0.39500
O333        O  0.50513727  0.53473016  0.28298823    -1.08800
O334        O  0.40758472  0.54098625  0.21860222    -0.65500
Ni335      Ni  0.49216136  0.52953876  0.21133471     1.26300
O336        O  0.57468109  0.44665696  0.28322393    -0.65700
O337        O  0.51003309  0.60953539  0.20218300    -0.78000
C338        C  0.49382995  0.48229776  0.10888726     0.85500
O339        O  0.48037904  0.52273243  0.13940762    -0.65200
Ni340      Ni  0.45776846  0.58964256  0.31997595     1.27400
Ni341      Ni  0.49044006  0.45548910  0.29416475     1.26100
H342        H  0.43314200  0.44147433  0.21719867     0.40000
O343        O  0.53900420  0.44434870  0.63323606    -0.79900
O344        O  0.53106267  0.48932312  0.86485887    -0.64600
O345        O  0.48607519  0.44483699  0.73014325    -1.11200
C346        C  0.46721992  0.64389528  0.71268689     1.06900
O347        O  0.44745804  0.53938845  0.87087819    -0.77800
O348        O  0.37400627  0.57143171  0.79448822    -0.65400
Ni349      Ni  0.53436295  0.39386672  0.69001632     1.34900
C350        C  0.35497242  0.54219857  0.75641891     0.85700
O351        O  0.51653319  0.38769572  0.81892839    -0.78400
O352        O  0.53063646  0.33913586  0.74394281    -0.88700
C353        C  0.49027828  0.51269408  0.89139964     0.85300
O354        O  0.61381286  0.41623226  0.70937262    -0.66900
O355        O  0.45913721  0.64655961  0.76163771    -0.86100
C356        C  0.63300993  0.44544951  0.74739925     0.86100
C357        C  0.52035210  0.34172892  0.79253940     1.07700
H358        H  0.54117379  0.55787758  0.77202823     0.39500
O359        O  0.50221884  0.54056758  0.77482255    -1.08800
O360        O  0.39070068  0.51913448  0.72341394    -0.65500
Ni361      Ni  0.47635210  0.52068677  0.70776040     1.26300
O362        O  0.59759477  0.46670855  0.78162099    -0.65700
O363        O  0.47086983  0.59783236  0.68636117    -0.78000
C364        C  0.49623411  0.47151408  0.61321357     0.85500
O365        O  0.45685006  0.49626031  0.64035290    -0.65200
Ni366      Ni  0.45386742  0.59126057  0.81505930     1.27400
Ni367      Ni  0.51187120  0.46480314  0.79731111     1.26100
H368        H  0.44710142  0.42756548  0.73293386     0.40000
C369        C  0.49441955  0.47734007  0.55716401    -0.04400
C370        C  0.54730414  0.49002193  0.52983548    -0.01500
C371        C  0.54476280  0.49754687  0.47635563     0.03500
C372        C  0.48971804  0.49221528  0.45067607    -0.04400
C373        C  0.43690939  0.48017517  0.47763253    -0.01500
C374        C  0.43931805  0.47184178  0.53093104     0.03500
C375        C  0.60385141  0.49774735  0.55661732     0.38100
C376        C  0.38008416  0.47689336  0.45053765     0.38100
C377        C  0.38536357  0.45612458  0.55827703     0.36500
C378        C  0.59798464  0.51374312  0.44816446     0.36500
N379        N  0.34235166  0.44347332  0.57994929    -0.38300
N380        N  0.64033824  0.52720307  0.42595180    -0.38300
N381        N  0.33475263  0.47466780  0.42907739    -0.37700
N382        N  0.64903363  0.50393955  0.57774028    -0.37700
C383        C  0.49146741  0.49253178  0.05388908    -0.04400
C384        C  0.54173155  0.51577755  0.02949802    -0.01500
C385        C  0.54101537  0.52317642  0.97596544     0.03500
C386        C  0.49047962  0.50602319  0.94716610    -0.04400
C387        C  0.44016500  0.48262428  0.97169712    -0.01500
C388        C  0.44040050  0.47671932  0.02545965     0.03500
C389        C  0.59414417  0.53182129  0.05944076     0.38100
C390        C  0.38935112  0.46244013  0.94157405     0.38100
C391        C  0.38837084  0.45441140  0.05156392     0.36500
C392        C  0.59146719  0.54967142  0.95072187     0.36500
N393        N  0.34671791  0.43688782  0.07230625    -0.38300
N394        N  0.63142035  0.57099535  0.93046506    -0.38300
N395        N  0.34896645  0.44597780  0.91763430    -0.37700
N396        N  0.63597549  0.54479464  0.08316282    -0.37700
C397        C  0.02635170  0.52343521  0.44201405    -0.04400
C398        C  0.99310178  0.56490604  0.46961023    -0.01500
C399        C  0.98216187  0.55857714  0.52313972     0.03500
C400        C  0.00405278  0.51084037  0.54881164    -0.04400
C401        C  0.03997571  0.47148076  0.52220376    -0.01500
C402        C  0.05011401  0.47695823  0.46900139     0.03500
C403        C  0.96492185  0.61057814  0.44224936     0.38100
C404        C  0.06584496  0.42446639  0.54962184     0.38100
C405        C  0.08114008  0.43175925  0.44151634     0.36500
C406        C  0.94617155  0.59948288  0.55149453     0.36500
N407        N  0.10420228  0.39436557  0.42019600    -0.38300
N408        N  0.91723941  0.63155386  0.57458924    -0.38300
N409        N  0.08667171  0.38719777  0.57153400    -0.37700
N410        N  0.94165336  0.64673804  0.42058366    -0.37700
C411        C  0.97816335  0.49151820  0.94559313    -0.04400
C412        C  0.93963065  0.53197580  0.96803207    -0.01500
C413        C  0.92710372  0.53088718  0.02135553     0.03500
C414        C  0.95215008  0.48854457  0.05252886    -0.04400
C415        C  0.98649528  0.44511206  0.02898994    -0.01500
C416        C  0.00005111  0.44700377  0.97562343     0.03500
C417        C  0.91381870  0.57551473  0.93620091     0.38100
C418        C  0.01153954  0.40088958  0.06027896     0.38100
C419        C  0.03908501  0.40504783  0.95215180     0.36500
C420        C  0.89022447  0.57487389  0.04449335     0.36500
N421        N  0.07064033  0.37192345  0.93339681    -0.38300
N422        N  0.86116375  0.61038509  0.06263530    -0.38300
N423        N  0.03145823  0.36562290  0.08533994    -0.37700
N424        N  0.89330971  0.60996181  0.91053721    -0.37700
C425        C  0.48757944  0.96426261  0.44786639    -0.04400
C426        C  0.44229050  0.99762943  0.47028277    -0.01500
C427        C  0.44398241  0.01085590  0.52344837     0.03500
C428        C  0.48938209  0.98793885  0.55433177    -0.04400
C429        C  0.52820544  0.94685410  0.53325580    -0.01500
C430        C  0.52912746  0.93689159  0.47951843     0.03500
C431        C  0.39760497  0.02243136  0.43748181     0.38100
C432        C  0.56458096  0.91286333  0.56688538     0.38100
C433        C  0.57435487  0.90076215  0.45644297     0.36500
C434        C  0.40060737  0.04954201  0.54591407     0.36500
N435        N  0.61068846  0.87223955  0.43795898    -0.38300
N436        N  0.36607341  0.08044220  0.56382298    -0.38300
N437        N  0.59197937  0.88401421  0.59352693    -0.37700
N438        N  0.36323211  0.04228863  0.40999486    -0.37700
C439        C  0.51925059  0.00066024  0.05438254    -0.04400
C440        C  0.47392708  0.03161243  0.02979671    -0.01500
C441        C  0.46525753  0.02566946  0.97594131     0.03500
C442        C  0.49920445  0.98611630  0.94722573    -0.04400
C443        C  0.54476231  0.95564041  0.97145095    -0.01500
C444        C  0.55536097  0.96342719  0.02471771     0.03500
C445        C  0.43328110  0.06617633  0.06041957     0.38100
C446        C  0.57872589  0.91393346  0.94190448     0.38100
C447        C  0.60204729  0.93083693  0.04852160     0.36500
C448        C  0.42219535  0.06081215  0.95003951     0.36500
N449        N  0.63971774  0.90297466  0.06472733    -0.38300
N450        N  0.38857528  0.08984216  0.92954039    -0.38300
N451        N  0.60532852  0.88030728  0.91851006    -0.37700
N452        N  0.40035010  0.09298822  0.08500143    -0.37700
C453        C  0.98916298  0.03286619  0.55708568    -0.04400
C454        C  0.03370563  0.06086227  0.52919163    -0.01500
C455        C  0.03433622  0.05560562  0.47514155     0.03500
C456        C  0.99055957  0.02218378  0.44981352    -0.04400
C457        C  0.94466752  0.99604186  0.47775176    -0.01500
C458        C  0.94337028  0.00228035  0.53163709     0.03500
C459        C  0.07893659  0.09425909  0.55612762     0.38100
C460        C  0.89969377  0.96198977  0.45114492     0.38100
C461        C  0.89499134  0.97757000  0.56104383     0.36500
C462        C  0.08164312  0.08191889  0.44581467     0.36500
N463        N  0.85633754  0.95849808  0.58473894    -0.38300
N464        N  0.11937349  0.10271432  0.42228889    -0.38300
N465        N  0.86403913  0.93458474  0.42996026    -0.37700
N466        N  0.11487179  0.12104706  0.57761415    -0.37700
C467        C  0.00163717  0.98977502  0.05419846    -0.04400
C468        C  0.94702758  0.97515131  0.03034900    -0.01500
C469        C  0.94488653  0.96642834  0.97676728     0.03500
C470        C  0.99780461  0.97077370  0.94801878    -0.04400
C471        C  0.05278954  0.98339192  0.97235088    -0.01500
C472        C  0.05485619  0.99212720  0.02589037     0.03500
C473        C  0.89356443  0.96814427  0.06116851     0.38100
C474        C  0.10593635  0.99267626  0.94183150     0.38100
C475        C  0.11092278  0.00585131  0.05160070     0.36500
C476        C  0.88841157  0.95438145  0.95117487     0.36500
N477        N  0.15543012  0.01664048  0.07238828    -0.38300
N478        N  0.84329320  0.94524524  0.93077391    -0.38300
N479        N  0.14779654  0.00146819  0.91720358    -0.37700
N480        N  0.85127331  0.96177759  0.08598492    -0.37700
C481        C  0.74946640  0.07970458  0.68254198    -0.04400
C482        C  0.77738441  0.13336428  0.68164982    -0.01500
C483        C  0.78499770  0.16215069  0.63436805     0.03500
C484        C  0.75873904  0.14107324  0.58786457    -0.04400
C485        C  0.73303858  0.08639281  0.58819887    -0.01500
C486        C  0.72897802  0.05589930  0.63507930     0.03500
C487        C  0.79634324  0.15996202  0.72989553     0.38100
C488        C  0.71474668  0.05986311  0.53973924     0.38100
C489        C  0.70542197  0.99902589  0.63472755     0.36500
C490        C  0.82159515  0.21274147  0.63346280     0.36500
N491        N  0.68711597  0.95334021  0.63562690    -0.38300
N492        N  0.85166196  0.25258623  0.63282215    -0.38300
N493        N  0.70140589  0.03795024  0.50096368    -0.37700
N494        N  0.81071236  0.18125426  0.76866278    -0.37700
C495        C  0.73451618  0.32241267  0.58881152    -0.04400
C496        C  0.75397584  0.37996897  0.58545936    -0.01500
C497        C  0.75871630  0.41572306  0.63025882     0.03500
C498        C  0.74263862  0.39631150  0.67941709    -0.04400
C499        C  0.71940308  0.34130241  0.68310862    -0.01500
C500        C  0.71290174  0.30549431  0.63851242     0.03500
C501        C  0.76580692  0.40484243  0.53569132     0.38100
C502        C  0.70238990  0.32157298  0.73382486     0.38100
C503        C  0.68149180  0.25277112  0.64578476     0.36500
C504        C  0.77975629  0.47341898  0.62586788     0.36500
N505        N  0.65482948  0.21185335  0.65372332    -0.38300
N506        N  0.79681562  0.51939512  0.62240171    -0.38300
N507        N  0.68879292  0.30666023  0.77451158    -0.37700
N508        N  0.77558793  0.42547444  0.49635995    -0.37700
C509        C  0.62803636  0.22859224  0.45170528    -0.04400
C510        C  0.61860331  0.27913788  0.42626525    -0.01500
C511        C  0.58924826  0.27893163  0.37784190     0.03500
C512        C  0.55288465  0.23242385  0.36111282    -0.04400
C513        C  0.54512737  0.19021562  0.39922966    -0.01500
C514        C  0.58735390  0.18439457  0.44047504     0.03500
C515        C  0.63893912  0.33150179  0.45065973     0.38100
C516        C  0.48902524  0.16038264  0.40141480     0.38100
C517        C  0.58455288  0.13663533  0.47431358     0.36500
C518        C  0.60429718  0.32532818  0.34645473     0.36500
N519        N  0.58101521  0.09882425  0.50183414    -0.38300
N520        N  0.62320484  0.36482336  0.32705604    -0.38300
N521        N  0.44319780  0.13800925  0.40303557    -0.37700
N522        N  0.65290546  0.37382657  0.47037695    -0.37700
C523        C  0.93111167  0.26527871  0.34229214    -0.04400
C524        C  0.87281256  0.28673666  0.34082362    -0.01500
C525        C  0.83427159  0.28287930  0.38425018     0.03500
C526        C  0.84768095  0.24732030  0.42713308    -0.04400
C527        C  0.90803230  0.22847834  0.42979221    -0.01500
C528        C  0.94913282  0.23856315  0.38848900     0.03500
C529        C  0.85171841  0.31140039  0.29346737     0.38100
C530        C  0.93100235  0.20470536  0.47692921     0.38100
C531        C  0.01156427  0.22484417  0.39499577     0.36500
C532        C  0.78376649  0.32072920  0.38571917     0.36500
N533        N  0.06168229  0.21488014  0.40021372    -0.38300
N534        N  0.74530839  0.35311109  0.38529792    -0.38300
N535        N  0.95063567  0.18617342  0.51438447    -0.37700
N536        N  0.83719017  0.33099512  0.25484455    -0.37700
C537        C  0.77970239  0.16562105  0.09285704    -0.04400
C538        C  0.75093372  0.11251916  0.08877601    -0.01500
C539        C  0.75018542  0.07590245  0.13154480     0.03500
C540        C  0.77243142  0.09383809  0.18027534    -0.04400
C541        C  0.79860969  0.14802288  0.18486179    -0.01500
C542        C  0.80616558  0.18190219  0.14077833     0.03500
C543        C  0.72324563  0.09500807  0.04035770     0.38100
C544        C  0.81591067  0.16908773  0.23558821     0.38100
C545        C  0.84081547  0.23365863  0.14493689     0.36500
C546        C  0.73056845  0.01815240  0.12511706     0.36500
N547        N  0.86927729  0.27449668  0.14794835    -0.38300
N548        N  0.71689417  0.97114608  0.12157514    -0.38300
N549        N  0.82896803  0.18405905  0.27693744    -0.37700
N550        N  0.70066795  0.08097394  0.00188432    -0.37700
C551        C  0.72792368  0.41560257  0.18547022    -0.04400
C552        C  0.74235175  0.43890695  0.13736119    -0.01500
C553        C  0.74591407  0.40425571  0.09196785     0.03500
C554        C  0.73688646  0.34465306  0.09410847    -0.04400
C555        C  0.71684266  0.32285761  0.14215629    -0.01500
C556        C  0.71580915  0.35739451  0.18746211     0.03500
C557        C  0.75462030  0.49894377  0.13510764     0.38100
C558        C  0.69437378  0.26577661  0.14697931     0.38100
C559        C  0.70869225  0.33052674  0.23676468     0.36500
C560        C  0.75486831  0.43119598  0.04267711     0.36500
N561        N  0.70681635  0.30424649  0.27393862    -0.38300
N562        N  0.76173548  0.45337109  0.00362580    -0.38300
N563        N  0.67407072  0.22141229  0.15341620    -0.37700
N564        N  0.76479454  0.54686574  0.13385818    -0.37700
C565        C  0.66423195  0.23087211  0.94551849    -0.04400
C566        C  0.61200902  0.26297836  0.95370803    -0.01500
C567        C  0.56761057  0.26507408  0.91461820     0.03500
C568        C  0.57770141  0.23984610  0.86478706    -0.04400
C569        C  0.62890687  0.20623091  0.85788058    -0.01500
C570        C  0.66850925  0.19755098  0.89934817     0.03500
C571        C  0.60420535  0.29534267  0.00144085     0.38100
C572        C  0.64399297  0.18439348  0.80696908     0.38100
C573        C  0.71513235  0.15533571  0.89376417     0.36500
C574        C  0.51164398  0.29305231  0.92637023     0.36500
N575        N  0.75226079  0.12171527  0.88937007    -0.38300
N576        N  0.46699060  0.31530331  0.93600649    -0.38300
N577        N  0.65762350  0.16812423  0.76621939    -0.37700
N578        N  0.59714504  0.32124147  0.03939966    -0.37700
C579        C  0.87870046  0.28147909  0.94694527    -0.04400
C580        C  0.93587666  0.25696731  0.95132861    -0.01500
C581        C  0.97169375  0.24865759  0.90662602     0.03500
C582        C  0.94994931  0.26325974  0.85705097    -0.04400
C583        C  0.89706130  0.29498748  0.85441746    -0.01500
C584        C  0.86660067  0.31037210  0.90026045     0.03500
C585        C  0.96072071  0.24645273  0.00194717     0.38100
C586        C  0.86981951  0.30597193  0.80484394     0.38100
C587        C  0.81984733  0.35256818  0.89834374     0.36500
C588        C  0.03105111  0.22530839  0.91168076     0.36500
N589        N  0.78281603  0.38641409  0.89644612    -0.38300
N590        N  0.07853018  0.20682444  0.91574910    -0.38300
N591        N  0.84731575  0.31361176  0.76528549    -0.37700
N592        N  0.98101182  0.23842554  0.04233632    -0.37700
C593        C  0.32357755  0.74536773  0.54947325    -0.04400
C594        C  0.31479270  0.77902725  0.59462734    -0.01500
C595        C  0.35264460  0.77334343  0.63812694     0.03500
C596        C  0.40360918  0.73826790  0.63575669    -0.04400
C597        C  0.41308605  0.70563998  0.58929795    -0.01500
C598        C  0.37123465  0.70670936  0.54818812     0.03500
C599        C  0.26423650  0.81709649  0.59770934     0.38100
C600        C  0.46690322  0.67263970  0.58155701     0.38100
C601        C  0.37732665  0.66715619  0.50489193     0.36500
C602        C  0.33691566  0.80136004  0.68635926     0.36500
N603        N  0.38305759  0.63415710  0.47163237    -0.38300
N604        N  0.32304731  0.82291876  0.72501587    -0.38300
N605        N  0.50966742  0.64631428  0.57445122    -0.37700
N606        N  0.22368508  0.84713502  0.60042689    -0.37700
C607        C  0.04957409  0.73740826  0.64204217    -0.04400
C608        C  0.10791312  0.71695484  0.64848563    -0.01500
C609        C  0.14700670  0.71158091  0.60544565     0.03500
C610        C  0.12821186  0.72788209  0.55512762    -0.04400
C611        C  0.06679452  0.74017181  0.54824011    -0.01500
C612        C  0.02834130  0.74609477  0.59126744     0.03500
C613        C  0.12804641  0.70240885  0.69980042     0.38100
C614        C  0.04233313  0.74520959  0.49648281     0.38100
C615        C  0.96637143  0.76098919  0.58309167     0.36500
C616        C  0.20521856  0.68744784  0.61414234     0.36500
N617        N  0.91698109  0.77296695  0.57633893    -0.38300
N618        N  0.25049892  0.66618605  0.62268035    -0.38300
N619        N  0.02318191  0.74954950  0.45514859    -0.37700
N620        N  0.14424653  0.69078487  0.74075263    -0.37700
C621        C  0.25440273  0.64110649  0.41019979    -0.04400
C622        C  0.29518351  0.65358772  0.37025845    -0.01500
C623        C  0.28474082  0.63006017  0.32101878     0.03500
C624        C  0.25536824  0.57770576  0.31591411    -0.04400
C625        C  0.22895643  0.55486485  0.36077228    -0.01500
C626        C  0.22409051  0.58879444  0.40681381     0.03500
C627        C  0.33736579  0.70009981  0.37624764     0.38100
C628        C  0.20693880  0.49749894  0.35881307     0.38100
C629        C  0.18913267  0.57049477  0.45034101     0.36500
C630        C  0.28745724  0.66785824  0.27808997     0.36500
N631        N  0.16212774  0.55648391  0.48599699    -0.38300
N632        N  0.28594200  0.70257359  0.24722751    -0.38300
N633        N  0.19097779  0.45102151  0.35615695    -0.37700
N634        N  0.37071764  0.73729888  0.38099015    -0.37700
C635        C  0.22799641  0.92488527  0.32410439    -0.04400
C636        C  0.23338197  0.94105225  0.37684951    -0.01500
C637        C  0.22752719  0.90040788  0.41630549     0.03500
C638        C  0.20881798  0.84448511  0.40350760    -0.04400
C639        C  0.18687405  0.83534803  0.35206692    -0.01500
C640        C  0.20421991  0.87132436  0.31201874     0.03500
C641        C  0.23737736  0.00056223  0.39018821     0.38100
C642        C  0.13942968  0.79474225  0.34157719     0.38100
C643        C  0.19429372  0.85480397  0.25836729     0.36500
C644        C  0.23551775  0.91790303  0.46985556     0.36500
N645        N  0.18677833  0.84185733  0.21541891    -0.38300
N646        N  0.24191362  0.93274107  0.51244406    -0.38300
N647        N  0.10119413  0.76280390  0.33331552    -0.37700
N648        N  0.23822871  0.04839931  0.40031295    -0.37700
C649        C  0.43655833  0.75373321  0.14895783    -0.04400
C650        C  0.45113678  0.79295872  0.11004195    -0.01500
C651        C  0.41489585  0.79799484  0.06459876     0.03500
C652        C  0.37126642  0.75596469  0.05253620    -0.04400
C653        C  0.37428940  0.70660089  0.08259111    -0.01500
C654        C  0.39798330  0.70940799  0.13297044     0.03500
C655        C  0.50720784  0.82260289  0.11474028     0.38100
C656        C  0.35137604  0.65258298  0.06307148     0.38100
C657        C  0.37650852  0.66749644  0.16695387     0.36500
C658        C  0.42699663  0.84277759  0.02915970     0.36500
N659        N  0.35359068  0.63113287  0.18812394    -0.38300
N660        N  0.43755060  0.87854456  0.00073020    -0.38300
N661        N  0.33464990  0.60903499  0.04767111    -0.37700
N662        N  0.55328398  0.84358462  0.12124844    -0.37700
C663        C  0.06793776  0.75024380  0.15765633    -0.04400
C664        C  0.12193947  0.72049275  0.16099395    -0.01500
C665        C  0.16017940  0.71457249  0.11761800     0.03500
C666        C  0.15295047  0.74802487  0.07258873    -0.04400
C667        C  0.09972716  0.78018954  0.06979167    -0.01500
C668        C  0.05647157  0.77908142  0.11073284     0.03500
C669        C  0.13976121  0.69779928  0.21027106     0.38100
C670        C  0.08951790  0.81524750  0.02540645     0.38100
C671        C  0.99975779  0.80708655  0.10397503     0.36500
C672        C  0.20457007  0.67042634  0.11912507     0.36500
N673        N  0.95437672  0.82931047  0.09819644    -0.38300
N674        N  0.23775882  0.63338923  0.12221278    -0.38300
N675        N  0.08109205  0.84332915  0.99000645    -0.37700
N676        N  0.15304294  0.67989230  0.24995726    -0.37700
C677        C  0.24496025  0.67174300  0.90824451    -0.04400
C678        C  0.22056481  0.61679189  0.91211914    -0.01500
C679        C  0.22027317  0.57887520  0.86862311     0.03500
C680        C  0.24257351  0.59588131  0.82011916    -0.04400
C681        C  0.26767318  0.65038833  0.81652521    -0.01500
C682        C  0.27164551  0.68683802  0.86060721     0.03500
C683        C  0.19957266  0.59797519  0.96191944     0.38100
C684        C  0.29054047  0.66849327  0.76724483     0.38100
C685        C  0.30643291  0.73843982  0.85725229     0.36500
C686        C  0.19948495  0.52135326  0.87422026     0.36500
N687        N  0.33506926  0.77902093  0.85406724    -0.38300
N688        N  0.18309478  0.47530391  0.87879008    -0.38300
N689        N  0.30926862  0.68232237  0.72781586    -0.37700
N690        N  0.18351513  0.58296257  0.00190924    -0.37700
C691        C  0.23108772  0.85112607  0.91343716    -0.04400
C692        C  0.25333282  0.90782871  0.91298559    -0.01500
C693        C  0.25482578  0.93916073  0.86645041     0.03500
C694        C  0.23497314  0.91505626  0.81921399    -0.04400
C695        C  0.20954229  0.86077193  0.81969704    -0.01500
C696        C  0.20362091  0.83070207  0.86650481     0.03500
C697        C  0.27103828  0.93600110  0.96098316     0.38100
C698        C  0.19115887  0.83543216  0.77075199     0.38100
C699        C  0.16718040  0.78017096  0.86461171     0.36500
C700        C  0.27408995  0.99761917  0.86705655     0.36500
N701        N  0.13642399  0.74085100  0.86114837    -0.38300
N702        N  0.28799022  0.04472416  0.86672924    -0.38300
N703        N  0.17771856  0.81671167  0.73072531    -0.37700
N704        N  0.28521482  0.95881234  0.99911793    -0.37700
loop_ 
_geom_bond_atom_site_label_1 
_geom_bond_atom_site_label_2 
_geom_bond_distance 
_geom_bond_site_symmetry_2 
_ccdc_geom_bond_type 
C1            C2   1.536   1_554  S
C1            C7   1.527       .  S
C1            C5   1.551   1_554  S
C1          C652   1.569       .  S
C2            H9   1.087       .  S
C2            C3   1.359       .  D
C3            C4   1.563       .  S
C3          C677   1.514       .  S
C4            C8   1.578   1_556  S
C4            C6   1.577       .  S
C4           H10   1.102       .  S
C5           H11   1.076       .  S
C5            C6   1.395       .  D
C6          C691   1.549       .  S
C7           H12   1.088       .  S
C7            C8   1.352       .  D
C8          C666   1.546       .  S
C13          C14   1.530       .  S
C13          C19   1.521       .  S
C13          C17   1.554       .  S
C13         C638   1.567       .  S
C14          H21   1.085       .  S
C14          C15   1.385       .  D
C15          C16   1.564       .  S
C15         C610   1.524       .  S
C16          C20   1.546       .  S
C16          C18   1.541       .  S
C16          H22   1.106       .  S
C17          H23   1.084       .  S
C17          C18   1.375       .  D
C18         C593   1.499       .  S
C19          H24   1.083       .  S
C19          C20   1.353       .  D
C20         C621   1.507       .  S
C25          C26   1.540   1_556  S
C25          C31   1.524       .  S
C25          C29   1.553   1_556  S
C25         C579   1.560       .  S
C26          H33   1.084       .  S
C26          C27   1.383       .  D
C27          C28   1.561       .  S
C27         C554   1.532       .  S
C28          C32   1.548   1_554  S
C28          C30   1.549       .  S
C28          H34   1.101       .  S
C29          H35   1.081       .  S
C29          C30   1.371       .  D
C30         C537   1.505       .  S
C31          H36   1.085       .  S
C31          C32   1.348       .  D
C32         C565   1.508       .  S
C37          C38   1.548       .  S
C37          C43   1.534       .  S
C37          C41   1.562       .  S
C37         C526   1.594       .  S
C38          H45   1.082       .  S
C38          C39   1.386       .  D
C39          C40   1.562       .  S
C39         C495   1.553       .  S
C40          C44   1.553       .  S
C40          C42   1.559       .  S
C40          H46   1.099       .  S
C41          H47   1.080       .  S
C41          C42   1.381       .  D
C42         C484   1.521       .  S
C43          H48   1.087       .  S
C43          C44   1.359       .  D
C44         C509   1.514       .  S
N49          C53   1.373   1_455  A
N49          C50   1.385       .  A
N49         C663   1.476       .  S
C50          C51   1.378   1_455  A
C50         C264   1.493       .  S
C51          C52   1.363       .  A
C51          H54   1.083       .  S
C52          C53   1.380       .  A
C52          H55   1.083       .  S
C53         C122   1.477   1_655  S
N56          C60   1.357   1_455  A
N56          C57   1.358   1_455  A
N56         C607   1.454       .  S
C57          C58   1.382       .  A
C57         C148   1.459   1_655  S
C58          C59   1.366       .  A
C58          H61   1.083       .  S
C59          C60   1.377       .  A
C59          H62   1.083       .  S
C60         C291   1.461   1_655  S
N63          C67   1.358       .  A
N63          C64   1.362       .  A
N63         C551   1.454       .  S
C64          C65   1.378       .  A
C64         C330   1.455       .  S
C65          C66   1.354       .  A
C65          H68   1.081       .  S
C66          C67   1.382       .  A
C66          H69   1.083       .  S
C67         C254   1.458       .  S
N70          C74   1.384       .  A
N70          C71   1.380       .  A
N70         C498   1.461       .  S
C71          C72   1.385       .  A
C71         C284   1.512       .  S
C72          C73   1.368       .  A
C72          H75   1.083       .  S
C73          C74   1.380       .  A
C73          H76   1.083       .  S
C74         C356   1.510       .  S
N77          C81   1.392       .  A
N77          C78   1.386       .  A
N77         C649   1.479       .  S
C78          C79   1.380       .  A
C78         C320   1.500       .  S
C79          C80   1.364       .  A
C79          H82   1.083       .  S
C80          C81   1.379       .  A
C80          H83   1.083       .  S
C81         C198   1.518       .  S
N84          C88   1.364       .  A
N84          C85   1.364       .  A
N84         C596   1.467       .  S
C85          C86   1.380       .  A
C85         C225   1.473       .  S
C86          C87   1.361       .  A
C86          H89   1.083       .  S
C87          C88   1.377       .  A
C87          H90   1.083       .  S
C88         C346   1.466       .  S
N91          C95   1.362       .  A
N91          C92   1.358       .  A
N91         C540   1.461       .  S
C92          C93   1.383   1_545  A
C92         C188   1.456       .  S
C93          C94   1.364   1_565  A
C93          H96   1.083       .  S
C94          C95   1.377       .  A
C94          H97   1.083   1_545  S
C95         C132   1.454       .  S
N98         C102   1.386       .  A
N98          C99   1.386       .  A
N98         C481   1.467       .  S
C99         C100   1.379       .  A
C99         C158   1.510       .  S
C100        C101   1.368       .  A
C100        H103   1.082   1_545  S
C101        C102   1.385       .  A
C101        H104   1.083   1_545  S
C102        C218   1.519       .  S
N105        C109   1.371   1_655  A
N105        C106   1.385       .  A
N105        C523   1.476       .  S
C106        C107   1.379   1_655  A
C106        C258   1.492       .  S
C107        C108   1.363       .  A
C107        H110   1.083       .  S
C108        C109   1.380       .  A
C108        H111   1.083       .  S
C109        C133   1.474   1_455  S
N112        C116   1.360   1_655  A
N112        C113   1.359   1_655  A
N112        C582   1.455       .  S
C113        C114   1.382       .  A
C113        C159   1.460   1_455  S
C114        C115   1.366       .  A
C114        H117   1.083       .  S
C115        C116   1.378       .  A
C115        H118   1.083       .  S
C116        C280   1.467   1_455  S
O119       Ni125   1.909       .  S
O119        C140   1.270   1_655  A
O120       Ni143   1.885   1_655  S
O120        C129   1.266       .  A
O121       Ni125   1.914   1_455  S
O121       Ni143   1.888       .  S
O121       Ni137   1.916   1_545  S
O121        H144   0.966       .  S
C122        O139   1.265   1_455  A
C122        O131   1.265       .  A
O123       Ni142   1.904       .  S
O123        C129   1.270   1_465  A
O124       Ni142   1.885       .  S
O124        C126   1.267       .  A
Ni125       O128   1.935       .  S
Ni125       O130   1.879       .  S
C126        C175   1.458       .  S
C126        O136   1.283       .  A
O127       Ni143   1.931       .  S
O127        C133   1.272   1_455  A
O128        C133   1.268       .  A
C129        C456   1.450       .  S
O130        C132   1.262       .  A
O131       Ni142   1.940       .  S
C132        O138   1.279       .  A
H134        O135   0.966       .  S
O135       Ni143   1.937   1_665  S
O135       Ni137   1.887   1_655  S
O135       Ni142   1.919   1_655  S
O136       Ni137   1.948       .  S
Ni137       O141   1.866       .  S
Ni137       O139   1.927   1_455  S
O138       Ni143   1.940   1_655  S
C140        C467   1.442   1_545  S
C140        O141   1.260   1_545  A
O145       Ni151   1.903       .  S
O145        C166   1.269       .  A
O146       Ni169   1.874       .  S
O146        C155   1.263   1_545  A
O147       Ni151   1.936   1_455  S
O147       Ni169   1.901   1_455  S
O147       Ni163   1.906   1_445  S
O147        H170   0.966       .  S
C148        O165   1.265   1_455  A
C148        O157   1.265       .  A
O149       Ni168   1.909       .  S
O149        C155   1.270   1_455  A
O150       Ni168   1.905       .  S
O150        C152   1.265       .  A
Ni151       O154   1.917       .  S
Ni151       O156   1.911       .  S
C152        C179   1.507       .  S
C152        O162   1.294       .  A
O153       Ni169   1.925       .  S
O153        C159   1.262       .  A
O154        C159   1.258       .  A
C155        C470   1.447       .  S
O156        C158   1.268       .  A
O157       Ni168   1.929       .  S
C158        O164   1.295       .  A
H160        O161   0.967       .  S
O161       Ni169   1.904   1_565  S
O161       Ni163   1.897       .  S
O161       Ni168   1.933   1_655  S
O162       Ni163   1.993   1_455  S
Ni163       O167   1.886   1_655  S
Ni163       O165   1.912       .  S
O164       Ni169   1.996       .  S
C166        C453   1.447       .  S
C166        O167   1.268   1_645  A
N171        C175   1.358       .  A
N171        C172   1.359       .  A
N171        C635   1.449       .  S
C172        C173   1.389   1_565  A
C172        C199   1.475       .  S
C173        C174   1.366       .  A
C173        H176   1.083       .  S
C174        C175   1.373   1_545  A
C174        H177   1.082       .  S
N178        C182   1.379       .  A
N178        C179   1.384       .  A
N178        C694   1.463       .  S
C179        C180   1.379       .  A
C180        C181   1.370       .  A
C180        H183   1.083   1_565  S
C181        C182   1.386       .  A
C181        H184   1.083   1_565  S
C182        C224   1.512       .  S
O185       Ni191   1.910       .  S
O185        C206   1.267       .  A
O186       Ni209   1.907       .  S
O186        C195   1.273       .  A
O187       Ni191   1.905   1_545  S
O187       Ni209   1.882   1_545  S
O187       Ni203   1.903       .  S
O187        H210   0.967       .  S
C188        O205   1.264       .  A
C188        O197   1.258       .  A
O189       Ni208   1.906       .  S
O189        C195   1.272   1_545  A
O190       Ni208   1.892       .  S
O190        C192   1.267       .  A
Ni191       O194   1.901       .  S
Ni191       O196   1.920       .  S
C192        C241   1.515       .  S
C192        O202   1.304       .  A
O193       Ni209   1.953       .  S
O193        C199   1.284       .  A
O194        C199   1.279       .  A
C195        C425   1.462       .  S
O196        C198   1.261       .  A
O197       Ni208   1.912       .  S
C198        O204   1.286       .  A
H200        O201   0.966       .  S
O201       Ni209   1.937       .  S
O201       Ni203   1.905   1_565  S
O201       Ni208   1.919   1_565  S
O202       Ni203   2.016       .  S
Ni203       O207   1.922       .  S
Ni203       O205   1.923       .  S
O204       Ni209   1.971       .  S
C206        C439   1.472   1_565  S
C206        O207   1.276   1_565  A
O211       Ni217   1.952       .  S
O211        C232   1.279       .  A
O212       Ni235   1.868       .  S
O212        C221   1.257   1_565  A
O213       Ni217   1.924       .  S
O213       Ni235   1.890       .  S
O213       Ni229   1.902   1_565  S
O213        H236   0.967       .  S
C214        C245   1.468       .  S
C214        O231   1.270       .  A
C214        O223   1.284       .  A
O215       Ni234   1.953       .  S
O215        C221   1.280       .  A
O216       Ni234   1.942       .  S
O216        C218   1.270       .  A
Ni217       O220   1.950       .  S
Ni217       O222   1.942       .  S
C218        O228   1.283       .  A
O219       Ni235   1.902       .  S
O219        C225   1.268       .  A
O220        C225   1.284       .  A
C221        C428   1.463   1_545  S
O222        C224   1.270       .  A
O223       Ni234   1.943       .  S
C224        O230   1.277       .  A
H226        O227   0.967       .  S
O227       Ni235   1.892   1_545  S
O227       Ni229   1.884       .  S
O227       Ni234   1.915       .  S
O228       Ni229   1.955       .  S
Ni229       O233   1.876       .  S
Ni229       O231   1.904       .  S
O230       Ni235   1.941       .  S
C232        C442   1.468       .  S
C232        O233   1.262   1_565  A
N237        C241   1.399       .  A
N237        C238   1.393       .  A
N237        C512   1.492       .  S
C238        C239   1.382       .  A
C238        C331   1.505       .  S
C239        C240   1.361       .  A
C239        H242   1.083       .  S
C240        C241   1.374       .  A
C240        H243   1.083       .  S
N244        C248   1.361       .  A
N244        C245   1.359       .  A
N244        C568   1.459       .  S
C245        C246   1.378       .  A
C246        C247   1.363       .  A
C246        H249   1.083       .  S
C247        C248   1.380       .  A
C247        H250   1.083       .  S
C248        C357   1.465       .  S
O251       Ni257   1.907   1_655  S
O251        C272   1.266       .  A
O252       Ni275   1.944       .  S
O252        C261   1.276       .  A
O253       Ni257   1.889       .  S
O253       Ni275   1.898       .  S
O253       Ni269   1.911   1_455  S
O253        H276   0.966       .  S
C254        O271   1.280       .  A
C254        O263   1.278       .  A
O255       Ni274   1.886   1_455  S
O255        C261   1.258       .  A
O256       Ni274   1.895       .  S
O256        C258   1.257       .  A
Ni257       O260   1.902       .  S
Ni257       O262   1.899       .  S
C258        O268   1.284       .  A
O259       Ni275   1.937       .  S
O259        C265   1.282       .  A
O260        C265   1.281       .  A
C261        C397   1.482       .  S
O262        C264   1.260       .  A
O263       Ni274   1.892       .  S
C264        O270   1.285       .  A
C265        C307   1.468       .  S
H266        O267   0.967       .  S
O267       Ni275   1.918   1_655  S
O267       Ni269   1.898       .  S
O267       Ni274   1.893       .  S
O268       Ni269   1.960       .  S
Ni269       O273   1.933       .  S
Ni269       O271   1.934       .  S
O270       Ni275   1.961       .  S
C272        C414   1.484       .  S
C272        O273   1.276       .  A
O277       Ni283   1.942       .  S
O277        C298   1.277   1_455  A
O278       Ni301   1.881       .  S
O278        C287   1.260   1_455  A
O279       Ni283   1.920   1_655  S
O279       Ni301   1.900   1_655  S
O279       Ni295   1.908       .  S
O279        H302   0.966       .  S
C280        O297   1.270       .  A
C280        O289   1.281       .  A
O281       Ni300   1.947       .  S
O281        C287   1.278       .  A
O282       Ni300   1.946       .  S
O282        C284   1.271       .  A
Ni283       O286   1.936       .  S
Ni283       O288   1.942       .  S
C284        O294   1.277       .  A
O285       Ni301   1.895   1_655  S
O285        C291   1.263   1_655  A
O286        C291   1.280       .  A
C287        C400   1.472   1_655  S
O288        C290   1.271       .  A
O289       Ni300   1.931       .  S
C290        C311   1.509       .  S
C290        O296   1.277       .  A
H292        O293   0.967       .  S
O293       Ni301   1.896       .  S
O293       Ni295   1.898   1_455  S
O293       Ni300   1.917   1_455  S
O294       Ni295   1.939       .  S
Ni295       O299   1.892       .  S
Ni295       O297   1.908       .  S
O296       Ni301   1.937       .  S
C298        C411   1.477       .  S
C298        O299   1.264       .  A
N303        C307   1.362       .  A
N303        C304   1.366       .  A
N303        C624   1.454       .  S
C304        C305   1.376       .  A
C304        C324   1.461       .  S
C305        C306   1.354       .  A
C305        H308   1.082       .  S
C306        C307   1.384       .  A
C306        H309   1.083       .  S
N310        C314   1.386       .  A
N310        C311   1.379       .  A
N310        C680   1.462       .  S
C311        C312   1.384       .  A
C312        C313   1.365       .  A
C312        H315   1.083       .  S
C313        C314   1.380       .  A
C313        H316   1.082       .  S
C314        C350   1.510       .  S
O317       Ni323   1.908       .  S
O317        C338   1.270       .  A
O318       Ni341   1.878       .  S
O318        C327   1.265       .  A
O319       Ni323   1.931       .  S
O319       Ni341   1.882       .  S
O319       Ni335   1.945       .  S
O319        H342   0.970       .  S
C320        O337   1.276       .  A
C320        O329   1.271       .  A
O321       Ni340   1.903       .  S
O321        C327   1.269       .  A
O322       Ni340   1.889       .  S
O322        C324   1.263       .  A
Ni323       O326   1.950       .  S
Ni323       O328   1.888       .  S
C324        O334   1.282       .  A
O325       Ni341   1.955       .  S
O325        C331   1.274       .  A
O326        C331   1.271       .  A
C327        C372   1.443       .  S
O328        C330   1.264       .  A
O329       Ni340   1.942       .  S
C330        O336   1.281       .  A
H332        O333   0.967       .  S
O333       Ni341   1.931       .  S
O333       Ni335   1.876       .  S
O333       Ni340   1.922       .  S
O334       Ni335   1.925       .  S
Ni335       O339   1.881       .  S
Ni335       O337   1.953       .  S
O336       Ni341   1.921       .  S
C338        C383   1.448       .  S
C338        O339   1.265       .  A
O343       Ni349   1.914       .  S
O343        C364   1.271       .  A
O344       Ni367   1.877       .  S
O344        C353   1.266       .  A
O345       Ni349   1.914       .  S
O345       Ni367   1.880       .  S
O345       Ni361   1.910       .  S
O345        H368   0.966       .  S
C346        O363   1.276       .  A
C346        O355   1.279       .  A
O347       Ni366   1.919       .  S
O347        C353   1.272       .  A
O348       Ni366   1.920       .  S
O348        C350   1.264       .  A
Ni349       O352   1.924       .  S
Ni349       O354   1.918       .  S
C350        O360   1.286       .  A
O351       Ni367   1.923       .  S
O351        C357   1.275       .  A
O352        C357   1.278       .  A
C353        C386   1.453       .  S
O354        C356   1.264       .  A
O355       Ni366   1.925       .  S
C356        O362   1.286       .  A
H358        O359   0.966       .  S
O359       Ni367   1.909       .  S
O359       Ni361   1.877       .  S
O359       Ni366   1.912       .  S
O360       Ni361   1.963       .  S
Ni361       O365   1.875       .  S
Ni361       O363   1.923       .  S
O362       Ni367   1.965       .  S
C364        C369   1.459       .  S
C364        O365   1.266       .  A
C369        C370   1.415       .  A
C369        C374   1.412       .  A
C370        C371   1.398       .  A
C370        C375   1.452       .  S
C371        C372   1.404       .  A
C371        C378   1.453       .  S
C372        C373   1.406       .  A
C373        C374   1.397       .  A
C373        C376   1.453       .  S
C374        C377   1.453       .  S
C375        N382   1.157       .  T
C376        N381   1.157       .  T
C377        N379   1.157       .  T
C378        N380   1.157       .  T
C383        C384   1.408       .  A
C383        C388   1.405       .  A
C384        C385   1.398   1_554  A
C384        C389   1.451       .  S
C385        C386   1.408       .  A
C385        C392   1.453       .  S
C386        C387   1.412       .  A
C387        C388   1.399   1_556  A
C387        C390   1.452       .  S
C388        C391   1.451       .  S
C389        N396   1.156       .  T
C390        N395   1.157       .  T
C391        N393   1.157       .  T
C392        N394   1.157       .  T
C397        C398   1.416   1_455  A
C397        C402   1.419       .  A
C398        C399   1.416       .  A
C398        C403   1.450       .  S
C399        C400   1.411   1_655  A
C399        C406   1.450       .  S
C400        C401   1.404       .  A
C401        C402   1.403       .  A
C401        C404   1.453       .  S
C402        C405   1.452       .  S
C403        N410   1.157       .  T
C404        N409   1.157       .  T
C405        N407   1.157       .  T
C406        N408   1.157       .  T
C411        C412   1.409       .  A
C411        C416   1.410   1_655  A
C412        C413   1.408   1_556  A
C412        C417   1.453       .  S
C413        C414   1.416       .  A
C413        C420   1.452       .  S
C414        C415   1.415       .  A
C415        C416   1.414   1_654  A
C415        C418   1.450   1_655  S
C416        C419   1.450       .  S
C417        N424   1.157       .  T
C418        N423   1.157       .  T
C419        N421   1.157       .  T
C420        N422   1.157       .  T
C425        C426   1.407       .  A
C425        C430   1.407       .  A
C426        C427   1.404   1_565  A
C426        C431   1.445   1_565  S
C427        C428   1.409   1_545  A
C427        C434   1.452       .  S
C428        C429   1.409       .  A
C429        C430   1.404       .  A
C429        C432   1.448       .  S
C430        C433   1.450       .  S
C431        N438   1.155       .  T
C432        N437   1.157       .  T
C433        N435   1.157       .  T
C434        N436   1.157       .  T
C439        C440   1.412       .  A
C439        C444   1.414   1_545  A
C440        C441   1.409   1_554  A
C440        C445   1.451       .  S
C441        C442   1.409   1_545  A
C441        C448   1.448       .  S
C442        C443   1.406       .  A
C443        C444   1.405   1_556  A
C443        C446   1.454       .  S
C444        C447   1.446       .  S
C445        N452   1.157       .  T
C446        N451   1.157       .  T
C447        N449   1.156       .  T
C448        N450   1.157       .  T
C453        C454   1.404   1_655  A
C453        C458   1.408       .  A
C454        C455   1.400       .  A
C454        C459   1.451       .  S
C455        C456   1.410   1_455  A
C455        C462   1.450       .  S
C456        C457   1.406   1_545  A
C457        C458   1.398   1_565  A
C457        C460   1.452       .  S
C458        C461   1.453   1_545  S
C459        N466   1.157       .  T
C460        N465   1.157       .  T
C461        N463   1.157       .  T
C462        N464   1.157       .  T
C467        C468   1.408   1_455  A
C467        C472   1.402       .  A
C468        C469   1.397   1_554  A
C468        C473   1.451       .  S
C469        C470   1.405       .  A
C469        C476   1.452       .  S
C470        C471   1.411   1_655  A
C471        C472   1.396   1_556  A
C471        C474   1.448       .  S
C472        C475   1.453   1_565  S
C473        N480   1.156       .  T
C474        N479   1.155   1_565  T
C475        N477   1.157       .  T
C476        N478   1.157       .  T
C481        C482   1.414       .  A
C481        C486   1.415       .  A
C482        C483   1.421       .  A
C482        C487   1.448       .  S
C483        C484   1.418       .  A
C483        C490   1.450       .  S
C484        C485   1.415       .  A
C485        C486   1.426       .  A
C485        C488   1.448       .  S
C486        C489   1.444   1_545  S
C487        N494   1.157       .  T
C488        N493   1.157       .  T
C489        N491   1.156       .  T
C490        N492   1.157       .  T
C495        C496   1.433       .  A
C495        C500   1.438       .  A
C496        C497   1.424       .  A
C496        C501   1.450       .  S
C497        C498   1.407       .  A
C497        C504   1.450       .  S
C498        C499   1.406       .  A
C499        C500   1.424       .  A
C499        C502   1.452       .  S
C500        C503   1.446       .  S
C501        N508   1.158       .  T
C502        N507   1.157       .  T
C503        N505   1.158       .  T
C504        N506   1.157       .  T
C509        C510   1.393       .  A
C509        C514   1.411       .  A
C510        C511   1.413       .  A
C510        C515   1.451       .  S
C511        C512   1.427       .  A
C511        C518   1.419       .  S
C512        C513   1.428       .  A
C513        C514   1.433       .  A
C513        C516   1.442       .  S
C514        C517   1.444       .  S
C515        N522   1.157       .  T
C516        N521   1.155       .  T
C517        N519   1.157       .  T
C518        N520   1.150       .  T
C523        C524   1.404       .  A
C523        C528   1.421       .  A
C524        C525   1.422       .  A
C524        C529   1.446       .  S
C525        C526   1.437       .  A
C525        C532   1.446       .  S
C526        C527   1.428       .  A
C527        C528   1.434       .  A
C527        C530   1.447       .  S
C528        C531   1.448   1_655  S
C529        N536   1.156       .  T
C530        N535   1.158       .  T
C531        N533   1.157       .  T
C532        N534   1.156       .  T
C537        C538   1.412       .  A
C537        C542   1.418       .  A
C538        C539   1.419       .  A
C538        C543   1.448       .  S
C539        C540   1.411       .  A
C539        C546   1.441       .  S
C540        C541   1.411       .  A
C541        C542   1.417       .  A
C541        C544   1.445       .  S
C542        C545   1.450       .  S
C543        N550   1.157       .  T
C544        N549   1.156       .  T
C545        N547   1.157       .  T
C546        N548   1.155   1_545  T
C551        C552   1.408       .  A
C551        C556   1.405       .  A
C552        C553   1.420       .  A
C552        C557   1.449       .  S
C553        C554   1.427       .  A
C553        C560   1.450       .  S
C554        C555   1.427       .  A
C555        C556   1.415       .  A
C555        C558   1.448       .  S
C556        C559   1.445       .  S
C557        N564   1.157       .  T
C558        N563   1.158       .  T
C559        N561   1.156       .  T
C560        N562   1.157       .  T
C565        C566   1.412       .  A
C565        C570   1.420       .  A
C566        C567   1.419       .  A
C566        C571   1.450   1_556  S
C567        C568   1.427       .  A
C567        C574   1.450       .  S
C568        C569   1.408       .  A
C569        C570   1.409       .  A
C569        C572   1.445       .  S
C570        C573   1.454       .  S
C571        N578   1.158       .  T
C572        N577   1.156       .  T
C573        N575   1.157       .  T
C574        N576   1.158       .  T
C579        C580   1.414       .  A
C579        C584   1.425       .  A
C580        C581   1.419       .  A
C580        C585   1.448   1_556  S
C581        C582   1.420       .  A
C581        C588   1.449   1_655  S
C582        C583   1.408       .  A
C583        C584   1.410       .  A
C583        C586   1.447       .  S
C584        C587   1.452       .  S
C585        N592   1.157       .  T
C586        N591   1.157       .  T
C587        N589   1.157       .  T
C588        N590   1.157       .  T
C593        C594   1.414       .  A
C593        C598   1.409       .  A
C594        C595   1.416       .  A
C594        C599   1.451       .  S
C595        C596   1.415       .  A
C595        C602   1.445       .  S
C596        C597   1.431       .  A
C597        C598   1.417       .  A
C597        C600   1.451       .  S
C598        C601   1.451       .  S
C599        N606   1.157       .  T
C600        N605   1.158       .  T
C601        N603   1.157       .  T
C602        N604   1.156       .  T
C607        C608   1.407       .  A
C607        C612   1.414       .  A
C608        C609   1.421       .  A
C608        C613   1.449       .  S
C609        C610   1.427       .  A
C609        C616   1.445       .  S
C610        C611   1.420       .  A
C611        C612   1.413       .  A
C611        C614   1.452       .  S
C612        C615   1.450   1_455  S
C613        N620   1.157       .  T
C614        N619   1.157       .  T
C615        N617   1.157       .  T
C616        N618   1.157       .  T
C621        C622   1.415       .  A
C621        C626   1.411       .  A
C622        C623   1.398       .  A
C622        C627   1.454       .  S
C623        C624   1.405       .  A
C623        C630   1.441       .  S
C624        C625   1.419       .  A
C625        C626   1.427       .  A
C625        C628   1.443       .  S
C626        C629   1.445       .  S
C627        N634   1.157       .  T
C628        N633   1.156       .  T
C629        N631   1.157       .  T
C630        N632   1.157       .  T
C635        C636   1.413       .  A
C635        C640   1.402       .  A
C636        C637   1.422       .  A
C636        C641   1.446   1_565  S
C637        C638   1.419       .  A
C637        C644   1.447       .  S
C638        C639   1.429       .  A
C639        C640   1.408       .  A
C639        C642   1.452       .  S
C640        C643   1.450       .  S
C641        N648   1.157       .  T
C642        N647   1.157       .  T
C643        N645   1.157       .  T
C644        N646   1.157       .  T
C649        C650   1.420       .  A
C649        C654   1.412       .  A
C650        C651   1.434       .  A
C650        C655   1.441       .  S
C651        C652   1.422       .  A
C651        C658   1.440       .  S
C652        C653   1.418       .  A
C653        C654   1.406       .  A
C653        C656   1.456       .  S
C654        C657   1.421       .  S
C655        N662   1.155       .  T
C656        N661   1.158       .  T
C657        N659   1.149       .  T
C658        N660   1.156       .  T
C663        C664   1.406       .  A
C663        C668   1.427       .  A
C664        C665   1.417       .  A
C664        C669   1.448       .  S
C665        C666   1.430       .  A
C665        C672   1.446       .  S
C666        C667   1.420       .  A
C667        C668   1.437       .  A
C667        C670   1.448       .  S
C668        C671   1.448   1_455  S
C669        N676   1.157       .  T
C670        N675   1.157   1_554  T
C671        N673   1.158       .  T
C672        N674   1.156       .  T
C677        C678   1.414       .  A
C677        C682   1.421       .  A
C678        C679   1.424       .  A
C678        C683   1.449       .  S
C679        C680   1.416       .  A
C679        C686   1.447       .  S
C680        C681   1.410       .  A
C681        C682   1.417       .  A
C681        C684   1.446       .  S
C682        C685   1.451       .  S
C683        N690   1.157   1_556  T
C684        N689   1.156       .  T
C685        N687   1.158       .  T
C686        N688   1.157       .  T
C691        C692   1.430       .  A
C691        C696   1.434       .  A
C692        C693   1.426       .  A
C692        C697   1.450       .  S
C693        C694   1.408       .  A
C693        C700   1.448       .  S
C694        C695   1.404       .  A
C695        C696   1.422       .  A
C695        C698   1.448       .  S
C696        C699   1.446       .  S
C697        N704   1.158       .  T
C698        N703   1.156       .  T
C699        N701   1.158       .  T
C700        N702   1.157   1_565  T
