geometry optimzed in LAMMPS
_audit_creation_date              2020-11-30 
_audit_creation_method            'lammps2cif' 
_symmetry_space_group_name_H-M    'P1' 
_symmetry_Int_Tables_number       1 
_symmetry_cell_setting            triclinic 
loop_ 
_symmetry_equiv_pos_as_xyz 
  x,y,z 
_cell_length_a                    32.13666359 
_cell_length_b                    40.289783595494335 
_cell_length_c                    36.20983155833643 
_cell_angle_alpha                 90.28884584772565 
_cell_angle_beta                  90.16576952827377 
_cell_angle_gamma                 89.58568893701607 
loop_ 
_atom_site_label 
_atom_site_type_symbol 
_atom_site_fract_x 
_atom_site_fract_y 
_atom_site_fract_z 
_atom_site_charge 
C1          C  0.13391171  0.53120228  0.43793917     0.80500
N2          N  0.13547502  0.56456665  0.43341890    -0.77800
C3          C  0.15647762  0.57821379  0.40510057     0.82900
N4          N  0.17522597  0.55827635  0.38025994    -0.77800
C5          C  0.17422166  0.52490416  0.38374503     0.83000
N6          N  0.15443912  0.51089111  0.41338632    -0.79500
C7          C  0.44781709  0.45527865  0.15390108     0.80500
N8          N  0.42420858  0.46843253  0.18180196    -0.77800
C9          C  0.40523992  0.44743191  0.20616660     0.82900
N10         N  0.40986149  0.41403620  0.20216029    -0.77800
C11         C  0.43373101  0.40110666  0.17493260     0.83000
N12         N  0.45199722  0.42195049  0.15085513    -0.79500
Zn13       Zn  0.23654722  0.50838576  0.27882195     1.49700
Zn14       Zn  0.33609003  0.50884432  0.28519775     1.49400
Zn15       Zn  0.28266576  0.46985329  0.34825221     1.49100
Zn16       Zn  0.28949425  0.44233782  0.26640334     1.49500
O17         O  0.28584505  0.48270503  0.29503348    -1.83900
O18         O  0.25328983  0.55503000  0.26277611    -0.74500
O19         O  0.36353846  0.51834195  0.33390665    -0.74300
O20         O  0.23033544  0.48873342  0.37105463    -0.73800
O21         O  0.32228660  0.55363936  0.26417281    -0.74500
O22         O  0.19930417  0.51455325  0.32385329    -0.74100
O23         O  0.33123264  0.49015838  0.37813541    -0.74700
O24         O  0.28387223  0.40157660  0.29749332    -0.74100
O25         O  0.37614960  0.48731271  0.24830457    -0.74900
O26         O  0.27907594  0.41983675  0.35525867    -0.74200
O27         O  0.34314427  0.43982963  0.23864545    -0.74700
O28         O  0.24446634  0.44070244  0.22859208    -0.74600
O29         O  0.20619861  0.48656368  0.23419575    -0.74400
C30         C  0.28835218  0.56891421  0.25763255     0.77400
C31         C  0.35908207  0.51054843  0.36775621     0.77900
C32         C  0.20111799  0.50665171  0.35802212     0.76800
C33         C  0.27954981  0.39611695  0.33182847     0.77200
C34         C  0.37355891  0.45908791  0.23256304     0.78300
C35         C  0.21443812  0.45904350  0.21800221     0.77400
C36         C  0.20084140  0.76460091  0.45850800     0.80500
N37         N  0.22459680  0.75895193  0.48889512    -0.77800
C38         C  0.21084974  0.73182002  0.99474365     0.82900
N39         N  0.22141976  0.70179820  0.47839444    -0.77800
C40         C  0.19763286  0.70728628  0.44791412     0.83000
N41         N  0.18709453  0.73862520  0.43802288    -0.79500
C42         C  0.28688572  0.70192859  0.19905253     0.80500
N43         N  0.28197882  0.70100848  0.16183505    -0.77800
C44         C  0.27971500  0.72931822  0.14191817     0.82900
N45         N  0.28269150  0.75879746  0.15970267    -0.77800
C46         C  0.28784825  0.76050347  0.19696619     0.83000
N47         N  0.28951864  0.73179811  0.21689213    -0.79500
C48         C  0.13113040  0.95376677  0.44502251     0.80500
N49         N  0.13718641  0.92117726  0.45303639    -0.77800
C50         C  0.15849852  0.90104371  0.42986498     0.82900
N51         N  0.17479127  0.91393795  0.39885166    -0.77800
C52         C  0.16989309  0.94636457  0.39014782     0.83000
N53         N  0.14744501  0.96673104  0.41324298    -0.79500
C54         C  0.43414957  0.02800462  0.15046078     0.80500
N55         N  0.40949575  0.00977430  0.17338805    -0.77800
C56         C  0.39265598  0.02487455  0.20406421     0.82900
N57         N  0.39922819  0.05772868  0.21034405    -0.77800
C58         C  0.42304052  0.07578094  0.18730379     0.83000
N59         N  0.44018851  0.06065058  0.15779243    -0.80300
Zn60       Zn  0.32599351  0.00939115  0.30738646     1.49700
Zn61       Zn  0.28285659  0.97002037  0.23844222     1.49400
Zn62       Zn  0.27770538  0.94214654  0.31961141     1.49100
Zn63       Zn  0.22567885  0.00702380  0.30251126     1.49500
O64         O  0.27807891  0.98253241  0.29158600    -1.83900
O65         O  0.36323473  0.01688808  0.26293226    -0.74500
O66         O  0.28558011  0.91993499  0.23094537    -0.74300
O67         O  0.32501909  0.94135741  0.35500537    -0.73800
O68         O  0.33539914  0.98923338  0.21557926    -0.74500
O69         O  0.35848049  0.98922641  0.35152929    -0.74100
O70         O  0.28202441  0.90088974  0.28812749    -0.74700
O71         O  0.18905504  0.98570014  0.34285485    -0.74100
O72         O  0.23421773  0.99015170  0.20941964    -0.74900
O73         O  0.22720680  0.94024569  0.35120793    -0.74200
O74         O  0.19665518  0.01483281  0.25375797    -0.74700
O75         O  0.23723534  0.05329122  0.32110878    -0.74600
O76         O  0.30617774  0.05500110  0.32255846    -0.74400
C77         C  0.36313730  0.00833001  0.22889949     0.77400
C78         C  0.28548791  0.89575817  0.25354923     0.77900
C79         C  0.35341404  0.96080202  0.36617583     0.76800
C80         C  0.19600429  0.95840212  0.35950509     0.77200
C81         C  0.20374917  0.00841911  0.21975032     0.78300
C82         C  0.27082302  0.06900263  0.32679072     0.77400
C83         C  0.27891397  0.26112535  0.38420428     0.80500
N84         N  0.27542885  0.23274792  0.36379065    -0.77800
C85         C  0.27797202  0.20275525  0.38095233     0.82900
N86         N  0.28487502  0.20125311  0.41785696    -0.77800
C87         C  0.28912700  0.22936301  0.43803001     0.83000
N88         N  0.28556774  0.25912266  0.42108434    -0.79500
C89         C  0.40595700  0.26534433  0.13302659     0.80500
N90         N  0.41245603  0.23832837  0.15478629    -0.77800
C91         C  0.39760608  0.20823368  0.14413008     0.82900
N92         N  0.37700126  0.20510086  0.11149524    -0.77800
C93         C  0.37009425  0.23201621  0.08994849     0.83000
N94         N  0.38463285  0.26193774  0.10087186    -0.79500
C95         C  0.18910038  0.44620130  0.18703991     0.80500
N96         N  0.18583084  0.41268680  0.18380179    -0.77800
C97         C  0.16436716  0.39883406  0.15556130     0.82900
N98         N  0.14682957  0.41867440  0.12989081    -0.77800
C99         C  0.14970891  0.45210571  0.13223501     0.83000
N100        N  0.16982325  0.46626922  0.16169592    -0.79500
C101        C  0.38383579  0.52961276  0.39475340     0.80500
N102        N  0.39155024  0.56174721  0.38598174    -0.77800
C103        C  0.41307728  0.58150718  0.40922754     0.82900
N104        N  0.42829100  0.56882155  0.44084868    -0.77800
C105        C  0.42245891  0.53658120  0.44991763     0.83000
N106        N  0.39964972  0.51657968  0.42686692    -0.79500
Zn107      Zn  0.04435286  0.51120772  0.09728864     1.49700
Zn108      Zn  0.48234519  0.47308025  0.04034507     1.49400
Zn109      Zn  0.03490910  0.53522570  0.01481860     1.49100
Zn110      Zn  0.08414617  0.46786463  0.02866440     1.49500
O111        O  0.03693597  0.49634989  0.04542693    -1.83900
O112        O  0.99859934  0.49281193  0.13078387    -0.74500
O113        O  0.44236204  0.49279239  0.00064410    -0.74300
O114        O  0.03894177  0.57820194  0.04295618    -0.73800
O115        O  0.45642367  0.46742769  0.09102537    -0.74500
O116        O  0.04741191  0.56131829  0.10077576    -0.74100
O117        O  0.48168869  0.54131194  0.48636910    -0.74700
O118        O  0.11360768  0.49121572  0.48452473    -0.74100
O119        O  0.49415431  0.42628720  0.02497539    -0.74900
O120        O  0.07954438  0.53923889  0.47989564    -0.74200
O121        O  0.06334597  0.42136413  0.01657527    -0.74700
O122        O  0.12221372  0.46077000  0.07277784    -0.74600
O123        O  0.09759493  0.49203249  0.11895002    -0.74400
C124        C  0.46682678  0.47481956  0.12411975     0.77400
C125        C  0.44963075  0.52393356  0.47974090     0.77900
C126        C  0.04489270  0.58449827  0.07697879     0.76800
C127        C  0.10789166  0.51929765  0.46889839     0.77200
C128        C  0.02698785  0.40887042  0.01678477     0.78300
C129        C  0.12343395  0.47079100  0.10630135     0.77400
C130        C  0.50923688  0.28005610  0.45237373     0.80500
N131        N  0.00713769  0.28253764  0.41517571    -0.77800
C132        C  0.00948768  0.25527133  0.39332677     0.82900
N133        N  0.01189992  0.22491197  0.40914095    -0.77800
C134        C  0.51505912  0.22160273  0.44595203     0.83000
N135        N  0.51258944  0.24927532  0.46795884    -0.79500
C136        C  0.09925712  0.21437927  0.20315515     0.80500
N137        N  0.07245334  0.21843713  0.23183157    -0.77800
C138        C  0.05903473  0.24904274  0.24217262     0.82900
N139        N  0.07312929  0.27584417  0.22363279    -0.77800
C140        C  0.09990928  0.27230245  0.19494586     0.83000
N141        N  0.11349913  0.24150471  0.18501037    -0.79500
C142        C  0.17952835  0.02725106  0.19234194     0.80500
N143        N  0.16321179  0.01335372  0.16088470    -0.77800
C144        C  0.14123511  0.03307230  0.13698024     0.82900
N145        N  0.13664978  0.06584278  0.14459089    -0.77800
C146        C  0.15255323  0.07959582  0.17547941     0.83000
N147        N  0.17351794  0.06008922  0.19951961    -0.79500
C148        C  0.38067406  0.94802543  0.39580655     0.80500
N149        N  0.38506437  0.91455304  0.39778902    -0.77800
C150        C  0.40799610  0.90021250  0.42469467     0.82900
N151        N  0.42601811  0.91974572  0.45056299    -0.77800
C152        C  0.42215019  0.95325128  0.44947327     0.83000
N153        N  0.40022542  0.96782314  0.42128182    -0.79500
Zn154      Zn  0.03037477  0.03586113  0.07151656     1.49700
Zn155      Zn  0.48103169  0.96823222  0.05575981     1.49400
Zn156      Zn  0.02676596  0.01171052  0.48898139     1.49100
Zn157      Zn  0.08181709  0.97253316  0.05038123     1.49500
O158        O  0.02901643  0.99646197  0.04163827    -1.83900
O159        O  0.98669873  0.03321673  0.10848148    -0.74500
O160        O  0.44539588  0.96222315  0.00959422    -0.74300
O161        O  0.02364669  0.06226794  0.48311735    -0.73800
O162        O  0.44863525  0.98754674  0.10151920    -0.74500
O163        O  0.02326528  0.07933054  0.04497585    -0.74100
O164        O  0.47491552  0.99180146  0.46494665    -0.74700
O165        O  0.11049770  0.96730727  0.00147945    -0.74100
O166        O  0.00123079  0.92132243  0.06933181    -0.74900
O167        O  0.07688593  0.99225788  0.46069013    -0.74200
O168        O  0.06971560  0.92570988  0.06506210    -0.74700
O169        O  0.11986325  0.99248112  0.09112244    -0.74600
O170        O  0.08219348  0.03796543  0.10040667    -0.74400
C171        C  0.45701269  0.01478322  0.11814678     0.77400
C172        C  0.44722735  0.97188842  0.47651617     0.77900
C173        C  0.02106582  0.08549045  0.01068058     0.76800
C174        C  0.10599842  0.97294042  0.47169356     0.77200
C175        C  0.03751477  0.90835683  0.07106786     0.78300
C176        C  0.11379292  0.02007154  0.10767609     0.77400
C177        C  0.46982158  0.71395047  0.37812290     0.80500
N178        N  0.99357242  0.71760291  0.34598870    -0.77800
C179        C  0.00753179  0.74783951  0.33579678     0.82900
N180        N  0.99538404  0.77505165  0.35526059    -0.77800
C181        C  0.47199907  0.77182776  0.38750361     0.83000
N182        N  0.45745664  0.74149359  0.39706036    -0.79500
C183        C  0.06861756  0.71805348  0.13074209     0.80500
N184        N  0.06399130  0.72087971  0.16789329    -0.77800
C185        C  0.05851468  0.75104135  0.18401540     0.82900
N186        N  0.05832649  0.77861182  0.16278761    -0.77800
C187        C  0.06361328  0.77627207  0.12573115     0.83000
N188        N  0.06759222  0.74588929  0.10947458    -0.79500
C189        C  0.06934208  0.73188015  0.24836052    -0.12000
C190        C  0.04882535  0.75329376  0.22376049     0.05000
C191        C  0.01728649  0.77471381  0.23722819    -0.07300
C192        C  0.00681242  0.77417506  0.27464603    -0.08100
C193        C  0.02610041  0.75180762  0.29893222    -0.02600
C194        C  0.56010603  0.73103695  0.28790440     0.04200
N195        N  0.58258358  0.70914863  0.31176366     0.66700
H196        H  0.59546292  0.71608894  0.24026964     0.15600
H197        H  0.98126486  0.78963723  0.28415060     0.15300
N198        N  0.99223866  0.79425986  0.21278568     0.74400
O199        O  0.57353950  0.67872753  0.31188944    -0.39000
O200        O  0.61745629  0.71810223  0.32425253    -0.39000
O201        O  0.95841258  0.78254917  0.20086183    -0.39700
O202        O  0.99843189  0.82507514  0.21066723    -0.39700
C203        C  0.08432814  0.86092942  0.08725282    -0.12000
C204        C  0.04352033  0.87259433  0.08055102     0.05000
C205        C  0.01034432  0.84974890  0.08322761    -0.07300
C206        C  0.01818860  0.81723646  0.09519873    -0.08100
C207        C  0.05861597  0.80659875  0.10380008    -0.02600
C208        C  0.09205299  0.82827030  0.09842101     0.04200
N209        N  0.13398444  0.81780584  0.10507868     0.66700
H210        H  0.11059786  0.87737378  0.08464363     0.15600
H211        H  0.99228847  0.80064414  0.09939489     0.15300
N212        N  0.96844243  0.85898158  0.07464961     0.74400
O213        O  0.15520479  0.80642431  0.07854910    -0.39000
O214        O  0.15237185  0.82744280  0.13399463    -0.39000
O215        O  0.95305629  0.84998335  0.04412622    -0.39700
O216        O  0.94438311  0.86760483  0.10050609    -0.39700
C217        C  0.41207775  0.80946797  0.39562290    -0.12000
C218        C  0.45373315  0.80193911  0.40374211     0.05000
C219        C  0.47834437  0.82536962  0.42237050    -0.07300
C220        C  0.46137701  0.85625863  0.43178769    -0.08100
C221        C  0.42054540  0.86493613  0.42136832    -0.02600
C222        C  0.39545739  0.84090090  0.40363954     0.04200
N223        N  0.35373592  0.84820826  0.39228813     0.66700
H224        H  0.39318360  0.79163691  0.38084789     0.15600
H225        H  0.48136241  0.87428285  0.44500865     0.15300
N226        N  0.01914308  0.81732431  0.43052521     0.74400
O227        O  0.34695336  0.85691360  0.35936365    -0.39000
O228        O  0.32390202  0.83762610  0.41138853    -0.39000
O229        O  0.04786569  0.82937772  0.41117132    -0.39700
O230        O  0.02766925  0.80606746  0.46212430    -0.39700
C231        C  0.13902952  0.13693311  0.15375223    -0.12000
C232        C  0.14359804  0.11491934  0.18350411     0.05000
C233        C  0.13575237  0.12655383  0.21960960    -0.07300
C234        C  0.12195927  0.15914280  0.22513735    -0.08100
C235        C  0.11621063  0.18089336  0.19532879    -0.02600
C236        C  0.12581874  0.16975000  0.15934258     0.04200
N237        N  0.12031835  0.19066858  0.12793668     0.66700
H238        H  0.14507754  0.12848041  0.12585395     0.15600
H239        H  0.11530021  0.16733404  0.25301526     0.15300
N240        N  0.13947824  0.10529250  0.25088848     0.74400
O241        O  0.15091977  0.20690759  0.11614783    -0.39000
O242        O  0.08941764  0.18615613  0.10698577    -0.39000
O243        O  0.17086112  0.10786752  0.27168086    -0.39700
O244        O  0.10788870  0.08999257  0.26219810    -0.39700
C245        C  0.03203830  0.12757124  0.45580450    -0.12000
C246        C  0.01786329  0.12124589  0.49162284     0.05000
C247        C  0.00541389  0.14748565  0.01953690    -0.07300
C248        C  0.00483561  0.17972959  0.00486796    -0.08100
C249        C  0.01580412  0.18686386  0.46200849    -0.02600
C250        C  0.03110798  0.15956884  0.44087628     0.04200
N251        N  0.55023214  0.16381856  0.40467432     0.66700
H252        H  0.04455731  0.10752101  0.43912339     0.15600
H253        H  0.99273334  0.19988780  0.02161529     0.15300
N254        N  0.99037679  0.14284477  0.05623002     0.74400
O255        O  0.08503674  0.16865752  0.39968871    -0.39000
O256        O  0.52912459  0.15439674  0.37715666    -0.39000
O257        O  0.01184476  0.15325347  0.08304975    -0.39700
O258        O  0.95222383  0.13716930  0.06106458    -0.39700
C259        C  0.00177992  0.23059826  0.33105816    -0.12000
C260        C  0.01347134  0.25795020  0.35275203     0.05000
C261        C  0.53478204  0.28574115  0.33502453    -0.07300
C262        C  0.04444845  0.28265569  0.29833747    -0.08100
C263        C  0.03686346  0.25363693  0.27772215    -0.02600
C264        C  0.01322246  0.22816104  0.29395081     0.04200
N265        N  0.00105433  0.19932988  0.27360162     0.66700
H266        H  0.98513131  0.21019650  0.34335858     0.15600
H267        H  0.56311855  0.30335868  0.28561552     0.15300
N268        N  0.54678277  0.31477872  0.35512843     0.74400
O269        O  0.02044201  0.17240547  0.27884151    -0.39000
O270        O  0.96494139  0.19843866  0.25986693    -0.39000
O271        O  0.58369873  0.31719737  0.36676025    -0.39700
O272        O  0.52443568  0.34058119  0.35296166    -0.39700
C273        C  0.03936810  0.67888506  0.08454821    -0.12000
C274        C  0.06719036  0.68463473  0.11379552     0.05000
C275        C  0.08846265  0.65745468  0.12966935    -0.07300
C276        C  0.08017440  0.62519423  0.11746229    -0.08100
C277        C  0.05141348  0.61923711  0.08902767    -0.02600
C278        C  0.03136655  0.64654989  0.07200892     0.04200
N279        N  0.00095214  0.64191546  0.04360185     0.66700
H280        H  0.02225419  0.69940449  0.07251738     0.15600
H281        H  0.09696993  0.60470395  0.12990727     0.15300
N282        N  0.11983735  0.66220682  0.15719721     0.74400
O283        O  0.96295690  0.64092037  0.05220323    -0.39000
O284        O  0.01081920  0.64712953  0.01044413    -0.39000
O285        O  0.11254887  0.65389217  0.19008418    -0.39700
O286        O  0.15705798  0.66593520  0.14710065    -0.39700
C287        C  0.04542615  0.31896893  0.49307645    -0.12000
C288        C  0.00852050  0.31067366  0.47454387     0.05000
C289        C  0.47825295  0.33501743  0.47099672    -0.07300
C290        C  0.48396165  0.36704901  0.48524329    -0.08100
C291        C  0.02123273  0.37630508  0.50122432    -0.02600
C292        C  0.05236937  0.35155308  0.50580542     0.04200
N293        N  0.09182245  0.35913231  0.52190122     0.66700
H294        H  0.07015405  0.30073416  0.49536008     0.15600
H295        H  0.45943787  0.38520663  0.48122404     0.15300
N296        N  0.44065323  0.32786005  0.45142140     0.74400
O297        O  0.09864431  0.35169167  0.55519162    -0.39000
O298        O  0.12221602  0.36495807  0.50097603    -0.39000
O299        O  0.40790686  0.32216885  0.46938245    -0.39700
O300        O  0.43783446  0.33535702  0.41771067    -0.39700
C301        C  0.46031002  0.65474946  0.36096307    -0.12000
C302        C  0.45228202  0.68069049  0.38623062     0.05000
C303        C  0.42786031  0.67382075  0.41781738    -0.07300
C304        C  0.41428329  0.64138832  0.42421129    -0.08100
C305        C  0.42342745  0.61571306  0.39925633    -0.02600
C306        C  0.44606794  0.62265066  0.36711620     0.04200
N307        N  0.45758971  0.59696572  0.34170691     0.66700
H308        H  0.47834015  0.65902276  0.33629444     0.15600
H309        H  0.39688466  0.63614292  0.44902789     0.15300
N310        N  0.93037180  0.69657575  0.44785519     0.74400
O311        O  0.43606274  0.59272284  0.31289518    -0.39000
O312        O  0.49396164  0.58501260  0.34309857    -0.39000
O313        O  0.89511895  0.70801182  0.45675904    -0.39700
O314        O  0.96053665  0.69984888  0.46990898    -0.39700
C315        C  0.16056305  0.30694081  0.17690050    -0.12000
C316        C  0.11719386  0.30234844  0.17798119     0.05000
C317        C  0.09059342  0.32856637  0.16743598    -0.07300
C318        C  0.10720079  0.35899806  0.15732894    -0.08100
C319        C  0.15017676  0.36434893  0.15845572    -0.02600
C320        C  0.17718493  0.33794192  0.16745030     0.04200
N321        N  0.22125404  0.34252772  0.16735162     0.66700
H322        H  0.18138315  0.28701052  0.18513463     0.15600
H323        H  0.08605005  0.37922037  0.15077793     0.15300
N324        N  0.04642531  0.32510126  0.16812890     0.74400
O325        O  0.24011433  0.34829524  0.19728891    -0.39000
O326        O  0.23991474  0.34653692  0.13709711    -0.39000
O327        O  0.02611666  0.33778266  0.19449125    -0.39700
O328        O  0.02763266  0.31721335  0.13878805    -0.39700
C329        C  0.36533392  0.20288199  0.02973465    -0.12000
C330        C  0.35117707  0.22844722  0.05304644     0.05000
C331        C  0.32271244  0.25213772  0.03928357    -0.07300
C332        C  0.31020147  0.25070137  0.00231385    -0.08100
C333        C  0.29902653  0.22815766  0.47782802    -0.02600
C334        C  0.32194757  0.20173777  0.49371891     0.04200
N335        N  0.33600347  0.17401117  0.47222755     0.66700
H336        H  0.38784109  0.18498117  0.03977680     0.15600
H337        H  0.28850097  0.26919558  0.99218479     0.15300
N338        N  0.30544047  0.27736353  0.06267142     0.74400
O339        O  0.37037625  0.17575891  0.45560597    -0.39000
O340        O  0.31976440  0.14596672  0.47716608    -0.39000
O341        O  0.31730918  0.30696306  0.05923983    -0.39700
O342        O  0.27224694  0.27158095  0.07994211    -0.39700
C343        C  0.30343694  0.12460601  0.32830638    -0.12000
C344        C  0.26937605  0.10454960  0.33751483     0.05000
C345        C  0.23565907  0.11890737  0.35712544    -0.07300
C346        C  0.23781167  0.15208212  0.36870126    -0.08100
C347        C  0.27271650  0.17141397  0.36079332    -0.02600
C348        C  0.30533218  0.15774418  0.33981462     0.04200
N349        N  0.34200032  0.17636633  0.33239648     0.66700
H350        H  0.32932522  0.11431882  0.31291191     0.15600
H351        H  0.21302452  0.16232000  0.38552592     0.15300
N352        N  0.20063729  0.09971237  0.36823976     0.74400
O353        O  0.37237428  0.17468499  0.35448624    -0.39000
O354        O  0.34736174  0.18821240  0.30059309    -0.39000
O355        O  0.20013213  0.08760768  0.40030530    -0.39700
O356        O  0.16686075  0.10250839  0.35064797    -0.39700
C357        C  0.44716266  0.16499121  0.16485892    -0.12000
C358        C  0.40672288  0.17823251  0.16564355     0.05000
C359        C  0.37441600  0.15968106  0.18138404    -0.07300
C360        C  0.38212247  0.12727687  0.19320811    -0.08100
C361        C  0.42126376  0.11239656  0.18802277    -0.02600
C362        C  0.45465539  0.13205278  0.17548871     0.04200
N363        N  0.49581043  0.11864102  0.17189318     0.66700
H364        H  0.47225622  0.17926482  0.15314872     0.15600
H365        H  0.35617382  0.11268479  0.20278562     0.15300
N366        N  0.33285372  0.17239443  0.18297259     0.74400
O367        O  0.50692100  0.10578119  0.14161002    -0.39000
O368        O  0.52330078  0.12689613  0.19506612    -0.39000
O369        O  0.30780325  0.16544156  0.15722071    -0.39700
O370        O  0.31869430  0.18244818  0.21353783    -0.39700
C371        C  0.30425347  0.82023842  0.19171768    -0.12000
C372        C  0.29111572  0.79403321  0.21426266     0.05000
C373        C  0.27931280  0.80138928  0.25097196    -0.07300
C374        C  0.27836352  0.83453829  0.26328443    -0.08100
C375        C  0.28920197  0.86090853  0.23981061    -0.02600
C376        C  0.30336133  0.85317725  0.20386938     0.04200
N377        N  0.31770697  0.87819293  0.17923773     0.66700
H378        H  0.31523209  0.81527251  0.16403206     0.15600
H379        H  0.26807886  0.83962078  0.29120082     0.15300
N380        N  0.26684322  0.77595057  0.27584534     0.74400
O381        O  0.35607861  0.88454916  0.17824761    -0.39000
O382        O  0.29491070  0.88672287  0.15243293    -0.39000
O383        O  0.29184101  0.76660405  0.30071043    -0.39700
O384        O  0.22866888  0.76950676  0.27907205    -0.39700
C385        C  0.17385634  0.84399641  0.40821923    -0.12000
C386        C  0.16539906  0.86552217  0.43799087     0.05000
C387        C  0.16622606  0.85278235  0.47428527    -0.07300
C388        C  0.17742066  0.81967687  0.47999998    -0.08100
C389        C  0.18727871  0.79864161  0.45028589    -0.02600
C390        C  0.18463663  0.81083016  0.41398643     0.04200
N391        N  0.19527499  0.79066220  0.38278935     0.66700
H392        H  0.17289307  0.85305851  0.38011290     0.15600
H393        H  0.17869456  0.81041671  0.50804948     0.15300
N394        N  0.15757942  0.87310683  0.50583211     0.74400
O395        O  0.16655073  0.77729985  0.36425784    -0.39000
O396        O  0.23073443  0.79375735  0.36837705    -0.39000
O397        O  0.12281367  0.87046840  0.52162844    -0.39700
O398        O  0.18750307  0.88594154  0.52329249    -0.39700
C399        C  0.25901108  0.75415519  0.04225680    -0.12000
C400        C  0.23215927  0.72873372  0.03085142     0.05000
C401        C  0.22498704  0.70189760  0.05485217    -0.07300
C402        C  0.24310207  0.70169505  0.09001312    -0.08100
C403        C  0.26804065  0.72805778  0.10228659    -0.02600
C404        C  0.27712400  0.75398348  0.07746701     0.04200
N405        N  0.30503129  0.78011466  0.08711759     0.66700
H406        H  0.26576084  0.77446660  0.02384761     0.15600
H407        H  0.23544024  0.68168952  0.10851441     0.15300
N408        N  0.19657769  0.67606228  0.04545787     0.74400
O409        O  0.34297615  0.77713101  0.07875136    -0.39000
O410        O  0.29044235  0.80866443  0.09383233    -0.39000
O411        O  0.23886433  0.64115067  0.53926128    -0.39700
O412        O  0.15864107  0.67949532  0.05364681    -0.39700
C413        C  0.25963584  0.62664274  0.25645271    -0.12000
C414        C  0.28984772  0.60368138  0.24432128     0.05000
C415        C  0.32102219  0.61447889  0.21976502    -0.07300
C416        C  0.32058589  0.64723760  0.20701202    -0.08100
C417        C  0.29005078  0.66997609  0.21869169    -0.02600
C418        C  0.25974755  0.65964757  0.24412199     0.04200
N419        N  0.22736307  0.68166681  0.25594051     0.66700
H420        H  0.23555965  0.61887722  0.27523516     0.15600
H421        H  0.34350829  0.65469195  0.18691979     0.15300
N422        N  0.35156905  0.59199500  0.20530437     0.74400
O423        O  0.19349288  0.68242516  0.23824304    -0.39000
O424        O  0.22876323  0.69379852  0.28810531    -0.39000
O425        O  0.34569433  0.57888087  0.17401593    -0.39700
O426        O  0.38767060  0.59169956  0.21909856    -0.39700
C427        C  0.29926477  0.33675598  0.32522783    -0.12000
C428        C  0.27631601  0.36125500  0.34421081     0.05000
C429        C  0.25113326  0.35174180  0.37418073    -0.07300
C430        C  0.25136143  0.31863347  0.38584276    -0.08100
C431        C  0.27549670  0.29442092  0.36759868    -0.02600
C432        C  0.29896625  0.30358310  0.33657648     0.04200
N433        N  0.32482738  0.28007579  0.31773480     0.66700
H434        H  0.31855987  0.34352762  0.30206656     0.15600
H435        H  0.23262207  0.31179628  0.40934643     0.15300
N436        N  0.22355146  0.37481427  0.39184130     0.74400
O437        O  0.31205632  0.26724872  0.28797619    -0.39000
O438        O  0.36306221  0.27851068  0.32561630    -0.39000
O439        O  0.18616808  0.37647132  0.38118176    -0.39700
O440        O  0.23319765  0.38664203  0.42301179    -0.39700
C441        C  0.43717239  0.35553017  0.12941964    -0.12000
C442        C  0.43314843  0.36512239  0.16653264     0.05000
C443        C  0.42538126  0.34050348  0.19330513    -0.07300
C444        C  0.41907451  0.30751967  0.18211274    -0.08100
C445        C  0.41999078  0.29866089  0.14456517    -0.02600
C446        C  0.43068965  0.32288473  0.11827587     0.04200
N447        N  0.43523065  0.31498744  0.07997538     0.66700
H448        H  0.44377721  0.37366841  0.10833449     0.15600
H449        H  0.41170206  0.28914129  0.20272793     0.15300
N450        N  0.42421956  0.34828551  0.23183987     0.74400
O451        O  0.40643083  0.32289667  0.05790211    -0.39000
O452        O  0.47122532  0.30957054  0.06740175    -0.39000
O453        O  0.38954207  0.34985286  0.24803494    -0.39700
O454        O  0.45690713  0.34468356  0.25084121    -0.39700
C455        C  0.13275380  0.63516561  0.41909133    -0.12000
C456        C  0.16390576  0.61411954  0.40504947     0.05000
C457        C  0.20379963  0.62709282  0.39759019    -0.07300
C458        C  0.21308871  0.65935849  0.40874307    -0.08100
C459        C  0.18317869  0.67891644  0.42655329    -0.02600
C460        C  0.14207062  0.66760480  0.42971908     0.04200
N461        N  0.11066461  0.68734604  0.44722663     0.66700
H462        H  0.10188592  0.62567425  0.42430618     0.15600
H463        H  0.24467279  0.66823504  0.40610867     0.15300
N464        N  0.23670774  0.60689319  0.38305573     0.74400
O465        O  0.08454778  0.70273752  0.42750676    -0.39000
O466        O  0.10300338  0.68291843  0.48099349    -0.39000
O467        O  0.24695804  0.61014056  0.34966998    -0.39700
O468        O  0.26168411  0.59285946  0.40505169    -0.39700
C469        C  0.13580587  0.52732990  0.93666310     0.80500
N470        N  0.13646953  0.56075889  0.93221643    -0.77800
C471        C  0.15781417  0.57481723  0.90436277     0.82900
N472        N  0.17782057  0.55530346  0.87991110    -0.77800
C473        C  0.17746335  0.52187466  0.88323540     0.83000
N474        N  0.15727648  0.50743488  0.91236615    -0.79500
C475        C  0.44364415  0.45476965  0.64868632     0.80500
N476        N  0.42206690  0.46778498  0.67788180    -0.77800
C477        C  0.40304148  0.44667722  0.70194157     0.82900
N478        N  0.40601280  0.41341978  0.69673108    -0.77800
C479        C  0.42802508  0.40049011  0.66840881     0.83000
N480        N  0.44609776  0.42138694  0.64421998    -0.79500
Zn481      Zn  0.24066120  0.50844884  0.77842948     1.49700
Zn482      Zn  0.33996765  0.50549099  0.78618038     1.49400
Zn483      Zn  0.28391417  0.46674318  0.84603038     1.49100
Zn484      Zn  0.28876200  0.44090326  0.76365721     1.49500
O485        O  0.28813681  0.48066554  0.79363360    -1.83900
O486        O  0.26006236  0.55468131  0.76429918    -0.74500
O487        O  0.36758087  0.51242092  0.83548578    -0.74300
O488        O  0.23004229  0.48256692  0.86902046    -0.73800
O489        O  0.32889110  0.55166079  0.76777522    -0.74500
O490        O  0.20501734  0.51467278  0.82392210    -0.74100
O491        O  0.32940602  0.48697489  0.87790951    -0.74700
O492        O  0.28861747  0.39860363  0.79382890    -0.74100
O493        O  0.37847562  0.48441040  0.74820688    -0.74900
O494        O  0.28782228  0.41757918  0.85136228    -0.74200
O495        O  0.34040953  0.44041079  0.73335475    -0.74700
O496        O  0.24039447  0.44054386  0.72844943    -0.74600
O497        O  0.20730968  0.48889524  0.73427365    -0.74400
C498        C  0.29576475  0.56799342  0.76115951     0.77400
C499        C  0.35973978  0.50536967  0.86904254     0.77900
C500        C  0.20401772  0.50388386  0.85705424     0.76800
C501        C  0.28922656  0.39354982  0.82852754     0.77200
C502        C  0.37265340  0.45817096  0.72926932     0.78300
C503        C  0.21177000  0.46066196  0.71852002     0.77400
C504        C  0.17905634  0.76571441  0.94966734     0.80500
N505        N  0.19949611  0.76217175  0.98230198    -0.77800
C506        C  0.23506941  0.72766454  0.49903520     0.82900
N507        N  0.20168595  0.70476523  0.97407260    -0.77800
C508        C  0.18130372  0.70807306  0.94134845     0.83000
N509        N  0.16974113  0.73853896  0.92906042    -0.79500
C510        C  0.29618437  0.70142105  0.70580737     0.80500
N511        N  0.29770585  0.69895370  0.66848158    -0.77800
C512        C  0.29588035  0.72622265  0.64698247     0.82900
N513        N  0.29218216  0.75640121  0.66324108    -0.77800
C514        C  0.29045276  0.75970323  0.70063876     0.83000
N515        N  0.29219304  0.73190132  0.72215092    -0.79500
C516        C  0.12521314  0.95631198  0.93958359     0.80500
N517        N  0.12543096  0.92299127  0.94416430    -0.77800
C518        C  0.14457345  0.90260696  0.91989738     0.82900
N519        N  0.16469886  0.91603333  0.89099692    -0.77800
C520        C  0.16519832  0.94930308  0.88560985     0.83000
N521        N  0.14504339  0.96994795  0.90996393    -0.79500
C522        C  0.42815793  0.03223300  0.64787553     0.80500
N523        N  0.40590642  0.01221151  0.67087443    -0.77800
C524        C  0.38629146  0.02609420  0.70080042     0.82900
N525        N  0.38746188  0.05942093  0.70624177    -0.77800
C526        C  0.40884706  0.07922851  0.68324550     0.83000
N527        N  0.42917746  0.06546660  0.65436340    -0.80300
Zn528      Zn  0.32671213  0.00781796  0.80562329     1.49700
Zn529      Zn  0.27939202  0.96987758  0.73752908     1.49400
Zn530      Zn  0.27596798  0.94291765  0.81930969     1.49100
Zn531      Zn  0.22683017  0.00968267  0.80197930     1.49500
O532        O  0.27718328  0.98286317  0.79069956    -1.83900
O533        O  0.36142758  0.01538821  0.76024882    -0.74500
O534        O  0.27740687  0.91973555  0.73030639    -0.74300
O535        O  0.32369641  0.94086551  0.85466995    -0.73800
O536        O  0.33179806  0.98818213  0.71332502    -0.74500
O537        O  0.35999787  0.98714708  0.84884983    -0.74100
O538        O  0.27684600  0.90158300  0.78799563    -0.74700
O539        O  0.18880847  0.98888186  0.84088569    -0.74100
O540        O  0.23136767  0.99125151  0.70918265    -0.74900
O541        O  0.22498341  0.94247399  0.85010569    -0.74200
O542        O  0.19777206  0.01878353  0.75382140    -0.74700
O543        O  0.24100724  0.05528341  0.82128315    -0.74600
O544        O  0.30992522  0.05353693  0.82170377    -0.74400
C545        C  0.35971269  0.00744378  0.72612242     0.77400
C546        C  0.27696666  0.89592337  0.75338486     0.77900
C547        C  0.35350742  0.95947422  0.86470351     0.76800
C548        C  0.19405335  0.96126742  0.85728663     0.77200
C549        C  0.20293473  0.01128246  0.71985866     0.78300
C550        C  0.27587085  0.06921154  0.82663514     0.77400
C551        C  0.29681804  0.25948066  0.88659405     0.80500
N552        N  0.29115754  0.23121786  0.86649008    -0.77800
C553        C  0.29650085  0.20110277  0.88287171     0.82900
N554        N  0.30772365  0.19916392  0.91898611    -0.77800
C555        C  0.31348062  0.22715395  0.93907632     0.83000
N556        N  0.30762243  0.25694097  0.92276786    -0.79500
C557        C  0.38901842  0.26683019  0.62770077     0.80500
N558        N  0.39342454  0.23994469  0.65001063    -0.77800
C559        C  0.37397489  0.21108589  0.64140601     0.82900
N560        N  0.35088866  0.20904544  0.61009935    -0.77800
C561        C  0.34612905  0.23575843  0.58789794     0.83000
N562        N  0.36531687  0.26455224  0.59675101    -0.79500
C563        C  0.18329960  0.44904077  0.68904206     0.80500
N564        N  0.17683548  0.41582223  0.68684031    -0.77800
C565        C  0.15257034  0.40276424  0.66001517     0.82900
N566        N  0.13525256  0.42292058  0.63464641    -0.77800
C567        C  0.14152201  0.45606924  0.63571142     0.83000
N568        N  0.16464791  0.46969094  0.66379496    -0.79500
C569        C  0.38206270  0.52432528  0.89740064     0.80500
N570        N  0.38600424  0.55717531  0.89071259    -0.77800
C571        C  0.40527057  0.57719792  0.91507024     0.82900
N572        N  0.42215242  0.56413042  0.94587401    -0.77800
C573        C  0.41974737  0.53116752  0.95301348     0.83000
N574        N  0.39919955  0.51080453  0.92869695    -0.79500
Zn575      Zn  0.03769946  0.51459531  0.59726713     1.49700
Zn576      Zn  0.48176774  0.47581996  0.53676397     1.49400
Zn577      Zn  0.03277697  0.54054148  0.51610621     1.49100
Zn578      Zn  0.08142901  0.47170660  0.52957722     1.49500
O579        O  0.03349739  0.50020608  0.54488594    -1.83900
O580        O  0.99141628  0.49409770  0.62814156    -0.74500
O581        O  0.44289995  0.49705772  0.49720362    -0.74300
O582        O  0.03573379  0.58385192  0.54568468    -0.73800
O583        O  0.45501746  0.46775554  0.58643831    -0.74500
O584        O  0.03835072  0.56482011  0.60294121    -0.74100
O585        O  0.48142756  0.53589743  0.98600454    -0.74700
O586        O  0.11588706  0.48690398  0.98298011    -0.74100
O587        O  0.49428581  0.42923389  0.51929871    -0.74900
O588        O  0.08083361  0.53433613  0.97808134    -0.74200
O589        O  0.06271465  0.42443993  0.51590830    -0.74700
O590        O  0.11758954  0.46537021  0.57526797    -0.74600
O591        O  0.09043900  0.49626978  0.62070100    -0.74400
C592        C  0.46338098  0.47499222  0.62001192     0.77400
C593        C  0.44873499  0.51879881  0.98155390     0.77900
C594        C  0.03812124  0.58904277  0.58035485     0.76800
C595        C  0.10966403  0.51485817  0.96724021     0.77200
C596        C  0.02661442  0.41176428  0.51258024     0.78300
C597        C  0.11712738  0.47531197  0.60887501     0.77400
C598        C  0.50891408  0.27790484  0.95868065     0.80500
N599        N  0.00534360  0.28058445  0.92143335    -0.77800
C600        C  0.00824348  0.25331454  0.89966458     0.82900
N601        N  0.01219722  0.22313548  0.91562384    -0.77800
C602        C  0.51691957  0.21986421  0.95251512     0.83000
N603        N  0.51369651  0.24741037  0.97439834    -0.79500
C604        C  0.10089423  0.21691543  0.70822597     0.80500
N605        N  0.07580627  0.21911718  0.73821715    -0.77800
C606        C  0.05945031  0.24871140  0.74890719     0.82900
N607        N  0.06926307  0.27633755  0.72964718    -0.77800
C608        C  0.09453615  0.27455843  0.69974256     0.83000
N609        N  0.11072356  0.24474754  0.68919677    -0.79500
C610        C  0.17891752  0.03048230  0.69276118     0.80500
N611        N  0.16085954  0.01671430  0.66203585    -0.77800
C612        C  0.13848564  0.03667036  0.63870062     0.82900
N613        N  0.13521845  0.06956475  0.64619083    -0.77800
C614        C  0.15342003  0.08334783  0.67618896     0.83000
N615        N  0.17471894  0.06350571  0.69959813    -0.79500
C616        C  0.38018616  0.94698465  0.89496648     0.80500
N617        N  0.38244208  0.91351624  0.89905654    -0.77800
C618        C  0.40367812  0.89978783  0.92744561     0.82900
N619        N  0.42214685  0.91984608  0.95242760    -0.77800
C620        C  0.42055246  0.95326951  0.94922089     0.83000
N621        N  0.40030398  0.96725419  0.91969638    -0.79500
Zn622      Zn  0.02871951  0.03892748  0.57002754     1.49700
Zn623      Zn  0.48005377  0.97077211  0.55681494     1.49400
Zn624      Zn  0.02411889  0.01174536  0.98987422     1.49100
Zn625      Zn  0.08033963  0.97364312  0.55344150     1.49500
O626        O  0.02876879  0.99811497  0.54167868    -1.83900
O627        O  0.98276869  0.03776396  0.60570559    -0.74500
O628        O  0.44513331  0.96323647  0.51040520    -0.74300
O629        O  0.02156953  0.06199954  0.98688958    -0.73800
O630        O  0.44702066  0.99193711  0.60067510    -0.74500
O631        O  0.02191355  0.08133533  0.54053538    -0.74100
O632        O  0.47282468  0.99252749  0.96434062    -0.74700
O633        O  0.11073578  0.96561039  0.50570823    -0.74100
O634        O  0.99869579  0.92291200  0.57146021    -0.74900
O635        O  0.07278701  0.99424596  0.95913163    -0.74200
O636        O  0.06730385  0.92772954  0.57162559    -0.74700
O637        O  0.11686943  0.99567200  0.59371318    -0.74600
O638        O  0.07999171  0.04202618  0.60077129    -0.74400
C639        C  0.45352952  0.01977802  0.61676975     0.77400
C640        C  0.44606353  0.97187118  0.97596807     0.77900
C641        C  0.02096934  0.08651088  0.50592110     0.76800
C642        C  0.10316799  0.97541195  0.96805886     0.77200
C643        C  0.03481428  0.91047892  0.57682786     0.78300
C644        C  0.11100300  0.02377820  0.60926522     0.77400
C645        C  0.45548649  0.71117818  0.88669738     0.80500
N646        N  0.99002446  0.71417363  0.85741475    -0.77800
C647        C  0.00655439  0.74411063  0.84941802     0.82900
N648        N  0.99439114  0.77097096  0.86938967    -0.77800
C649        C  0.46001373  0.76848016  0.89871919     0.83000
N650        N  0.44328901  0.73840425  0.90629707    -0.79500
C651        C  0.05887941  0.72129947  0.64401606     0.80500
N652        N  0.05936399  0.72359911  0.68142756    -0.77800
C653        C  0.05897237  0.75346963  0.69891972     0.82900
N654        N  0.05859343  0.78154026  0.67847226    -0.77800
C655        C  0.05798919  0.78002574  0.64101899     0.83000
N656        N  0.05724456  0.74981530  0.62370974    -0.79500
C657        C  0.06481739  0.72653823  0.76031322    -0.12000
C658        C  0.05388399  0.75473374  0.73965890     0.05000
C659        C  0.03406769  0.78161781  0.75792386    -0.07300
C660        C  0.02233934  0.77848980  0.79487924    -0.08100
C661        C  0.02925532  0.74884616  0.81429038    -0.02600
C662        C  0.54686965  0.72501485  0.79888523     0.04200
N663        N  0.56127224  0.69707981  0.81958191     0.66700
H664        H  0.57802456  0.70851022  0.74983399     0.15600
H665        H  0.00479479  0.79859535  0.80739773     0.15300
N666        N  0.02210046  0.81117247  0.73886233     0.74400
O667        O  0.54474519  0.66915200  0.81419123    -0.39000
O668        O  0.59669119  0.69834797  0.83463929    -0.39000
O669        O  0.98592309  0.81339325  0.72540636    -0.39700
O670        O  0.04300863  0.83723096  0.74369305    -0.39700
C671        C  0.07638594  0.86866766  0.61131691    -0.12000
C672        C  0.04036368  0.87583270  0.59063309     0.05000
C673        C  0.01167887  0.84987928  0.58402344    -0.07300
C674        C  0.01936966  0.81797527  0.59846390    -0.08100
C675        C  0.05468922  0.81153190  0.62026290    -0.02600
C676        C  0.08339544  0.83724229  0.62642987     0.04200
N677        N  0.11986084  0.83197659  0.64835906     0.66700
H678        H  0.09895745  0.88789726  0.61680705     0.15600
H679        H  0.99668523  0.79861559  0.59406106     0.15300
N680        N  0.97455346  0.85529306  0.56304331     0.74400
O681        O  0.15350430  0.82403729  0.63263949    -0.39000
O682        O  0.12084693  0.84301702  0.68102140    -0.39000
O683        O  0.97333967  0.84585568  0.52977794    -0.39700
O684        O  0.94086122  0.86089603  0.57984789    -0.39700
C685        C  0.40137011  0.80722059  0.90752663    -0.12000
C686        C  0.44295041  0.79889246  0.91511222     0.05000
C687        C  0.46941858  0.82266461  0.93100126    -0.07300
C688        C  0.45452388  0.85469642  0.93773271    -0.08100
C689        C  0.41398847  0.86404980  0.92720319    -0.02600
C690        C  0.38687836  0.83976886  0.91274879     0.04200
N691        N  0.34530521  0.84792784  0.90174569     0.66700
H692        H  0.38109247  0.78916661  0.89467588     0.15600
H693        H  0.47596180  0.87292997  0.94857828     0.15300
N694        N  0.01854268  0.81678016  0.93395326     0.74400
O695        O  0.33778974  0.85405557  0.86822460    -0.39000
O696        O  0.31555776  0.84094490  0.92293074    -0.39000
O697        O  0.04458637  0.82666728  0.91049742    -0.39700
O698        O  0.03100257  0.80875426  0.96577259    -0.39700
C699        C  0.13037354  0.13916947  0.65570273    -0.12000
C700        C  0.14656405  0.11914623  0.68414511     0.05000
C701        C  0.15224394  0.13338387  0.71964238    -0.07300
C702        C  0.13816268  0.16575884  0.72655824    -0.08100
C703        C  0.11956506  0.18468019  0.69855586    -0.02600
C704        C  0.11701833  0.17163408  0.66260484     0.04200
N705        N  0.09765133  0.18988449  0.63347472     0.66700
H706        H  0.12644172  0.12927475  0.62809490     0.15600
H707        H  0.14103305  0.17594582  0.75414979     0.15300
N708        N  0.17056296  0.11523500  0.74943112     0.74400
O709        O  0.11998657  0.20279776  0.60889831    -0.39000
O710        O  0.05922041  0.18635882  0.62762473    -0.39000
O711        O  0.20793171  0.12070921  0.75822652    -0.39700
O712        O  0.14725668  0.10061073  0.77201535    -0.39700
C713        C  0.03385473  0.12676864  0.96190440    -0.12000
C714        C  0.01947734  0.12041056  0.99761841     0.05000
C715        C  0.00194094  0.14826142  0.51265965    -0.07300
C716        C  0.00153236  0.18059121  0.49794651    -0.08100
C717        C  0.01826946  0.18580798  0.96865648    -0.02600
C718        C  0.03383021  0.15878468  0.94745931     0.04200
N719        N  0.55407903  0.16328079  0.91124133     0.66700
H720        H  0.04602885  0.10673791  0.94498551     0.15600
H721        H  0.98868216  0.20066706  0.51437202     0.15300
N722        N  0.98380775  0.14323626  0.54814602     0.74400
O723        O  0.08979126  0.16699593  0.90830154    -0.39000
O724        O  0.53336034  0.15422377  0.88335073    -0.39000
O725        O  0.00311016  0.15278268  0.57660052    -0.39700
O726        O  0.94534982  0.13746188  0.55030190    -0.39700
C727        C  0.00454921  0.22708868  0.83805519    -0.12000
C728        C  0.01194974  0.25580264  0.85906342     0.05000
C729        C  0.53055921  0.28481620  0.84094219    -0.07300
C730        C  0.04015535  0.28188263  0.80427448    -0.08100
C731        C  0.03735942  0.25179055  0.78460607    -0.02600
C732        C  0.01756939  0.22460834  0.80144318     0.04200
N733        N  0.01145878  0.19384531  0.78247181     0.66700
H734        H  0.99055446  0.20562552  0.85065116     0.15600
H735        H  0.55662568  0.30422548  0.79137530     0.15300
N736        N  0.53662294  0.31547939  0.86016641     0.74400
O737        O  0.03645714  0.17015630  0.78845552    -0.39000
O738        O  0.97585416  0.18751906  0.76958310    -0.39000
O739        O  0.57248563  0.32267143  0.87186912    -0.39700
O740        O  0.50966093  0.33821881  0.85700286    -0.39700
C741        C  0.03515102  0.68392471  0.59246588    -0.12000
C742        C  0.05627980  0.68776048  0.62628016     0.05000
C743        C  0.07157191  0.65885169  0.64407185    -0.07300
C744        C  0.06474162  0.62745958  0.62858045    -0.08100
C745        C  0.04307796  0.62346858  0.59519713    -0.02600
C746        C  0.02828668  0.65226595  0.57696399     0.04200
N747        N  0.00417564  0.64991601  0.54387844     0.66700
H748        H  0.02246797  0.70547972  0.57859522     0.15600
H749        H  0.07722650  0.60596243  0.64273048     0.15300
N750        N  0.09511911  0.66061783  0.67756036     0.74400
O751        O  0.96505074  0.64853583  0.54618108    -0.39000
O752        O  0.02050812  0.65771770  0.51352992    -0.39000
O753        O  0.07877252  0.65076939  0.70715938    -0.39700
O754        O  0.13422793  0.66256487  0.67569310    -0.39700
C755        C  0.04444943  0.31631633  0.99962132    -0.12000
C756        C  0.00765347  0.30837575  0.98078751     0.05000
C757        C  0.47724089  0.33225545  0.97688543    -0.07300
C758        C  0.48291330  0.36441115  0.99041615    -0.08100
C759        C  0.02061737  0.37352588  0.00694012    -0.02600
C760        C  0.05122953  0.34867665  0.01268356     0.04200
N761        N  0.08917583  0.35569297  0.03175138     0.66700
H762        H  0.06886880  0.29787729  0.00242581     0.15600
H763        H  0.45854830  0.38262134  0.98591060     0.15300
N764        N  0.43936653  0.32445195  0.95804847     0.74400
O765        O  0.09121199  0.35094615  0.06613080    -0.39000
O766        O  0.12238896  0.35855571  0.01358068    -0.39000
O767        O  0.40724726  0.31810416  0.97660547    -0.39700
O768        O  0.43564095  0.33134814  0.92424901    -0.39700
C769        C  0.44487894  0.65298708  0.86696705    -0.12000
C770        C  0.43739400  0.67794997  0.89347092     0.05000
C771        C  0.41459611  0.66976003  0.92561330    -0.07300
C772        C  0.40321285  0.63675189  0.93173723    -0.08100
C773        C  0.41295499  0.61193488  0.90595345    -0.02600
C774        C  0.43302300  0.62033362  0.87291932     0.04200
N775        N  0.44504511  0.59556176  0.84657181     0.66700
H776        H  0.46128114  0.65839636  0.84165403     0.15600
H777        H  0.38725851  0.63037630  0.95702008     0.15300
N778        N  0.90998311  0.69417955  0.95116203     0.74400
O779        O  0.42317609  0.59142401  0.81794742    -0.39000
O780        O  0.48176064  0.58425628  0.84728365    -0.39000
O781        O  0.87369862  0.70638132  0.95131549    -0.39700
O782        O  0.93212137  0.69653291  0.97987517    -0.39700
C783        C  0.15145531  0.31050393  0.67702251    -0.12000
C784        C  0.10863000  0.30556792  0.68259463     0.05000
C785        C  0.08055958  0.33201368  0.67624256    -0.07300
C786        C  0.09557315  0.36298859  0.66595365    -0.08100
C787        C  0.13836951  0.36842616  0.66288715    -0.02600
C788        C  0.16646231  0.34189716  0.66747409     0.04200
N789        N  0.21017675  0.34687160  0.66315425     0.66700
H790        H  0.17341947  0.29046284  0.68194549     0.15600
H791        H  0.07378461  0.38341733  0.66261676     0.15300
N792        N  0.03681300  0.32821547  0.68143928     0.74400
O793        O  0.23280741  0.35072038  0.69136307    -0.39000
O794        O  0.22450718  0.35371960  0.63170499    -0.39000
O795        O  0.02025257  0.33937324  0.71055935    -0.39700
O796        O  0.01412431  0.32177185  0.65388024    -0.39700
C797        C  0.33458684  0.20386437  0.53059555    -0.12000
C798        C  0.32550335  0.23214692  0.55187352     0.05000
C799        C  0.30083260  0.25769143  0.53669407    -0.07300
C800        C  0.28766016  0.25543165  0.50001058    -0.08100
C801        C  0.32550120  0.22587586  0.97849359    -0.02600
C802        C  0.35299855  0.20151905  0.99261966     0.04200
N803        N  0.37145740  0.17692824  0.96915447     0.66700
H804        H  0.35395218  0.18427362  0.54183409     0.15600
H805        H  0.26920543  0.27550266  0.48864989     0.15300
N806        N  0.28866195  0.28600498  0.55812177     0.74400
O807        O  0.40544196  0.18318355  0.95335152    -0.39000
O808        O  0.35962016  0.14722181  0.97141942    -0.39000
O809        O  0.30513968  0.31370011  0.55171790    -0.39700
O810        O  0.25507635  0.28514486  0.57603905    -0.39700
C811        C  0.31386672  0.12237993  0.82895617    -0.12000
C812        C  0.27780810  0.10454192  0.83785174     0.05000
C813        C  0.24574807  0.12072657  0.85786665    -0.07300
C814        C  0.25150668  0.15331875  0.87032839    -0.08100
C815        C  0.28838517  0.17024159  0.86282530    -0.02600
C816        C  0.31937898  0.15492773  0.84132778     0.04200
N817        N  0.35764343  0.17132322  0.83365861     0.66700
H818        H  0.33850668  0.11076117  0.81307256     0.15600
H819        H  0.22782951  0.16496372  0.88732503     0.15300
N820        N  0.20847548  0.10399167  0.86803309     0.74400
O821        O  0.38851118  0.16662989  0.85465812    -0.39000
O822        O  0.36329731  0.18357401  0.80208349    -0.39000
O823        O  0.20588540  0.09158253  0.89986368    -0.39700
O824        O  0.17552031  0.10969881  0.85006943    -0.39700
C825        C  0.42368876  0.17108265  0.66889628    -0.12000
C826        C  0.38221672  0.18065123  0.66252629     0.05000
C827        C  0.34997037  0.15828421  0.67054536    -0.07300
C828        C  0.35972231  0.12601750  0.68161734    -0.08100
C829        C  0.40122182  0.11525088  0.68361611    -0.02600
C830        C  0.43345081  0.13836920  0.67883935     0.04200
N831        N  0.47613128  0.12870906  0.68247047     0.66700
H832        H  0.44870168  0.18811902  0.66309668     0.15600
H833        H  0.33467973  0.10852735  0.68536522     0.15300
N834        N  0.30722179  0.16725122  0.66545249     0.74400
O835        O  0.49681814  0.12147612  0.65395087    -0.39000
O836        O  0.49511217  0.13484379  0.71225091    -0.39000
O837        O  0.28858931  0.15801666  0.63648549    -0.39700
O838        O  0.28610652  0.17635124  0.69307582    -0.39700
C839        C  0.26775937  0.81835852  0.69317526    -0.12000
C840        C  0.28453581  0.79367728  0.71639521     0.05000
C841        C  0.29669568  0.80280494  0.75254691    -0.07300
C842        C  0.29267174  0.83597116  0.76423168    -0.08100
C843        C  0.27765580  0.86083192  0.74030735    -0.02600
C844        C  0.26478319  0.85152778  0.70445343     0.04200
N845        N  0.24905668  0.87530670  0.67869789     0.66700
H846        H  0.25748069  0.81214776  0.66556803     0.15600
H847        H  0.30307157  0.84245636  0.79171605     0.15300
N848        N  0.31600432  0.77954825  0.77695127     0.74400
O849        O  0.27293805  0.88608400  0.65396350    -0.39000
O850        O  0.21023138  0.87853904  0.67466484    -0.39000
O851        O  0.35519610  0.77742173  0.77766731    -0.39700
O852        O  0.29543030  0.76826337  0.80366451    -0.39700
C853        C  0.16053200  0.84554653  0.89742186    -0.12000
C854        C  0.14698824  0.86641194  0.92632383     0.05000
C855        C  0.13918017  0.85235557  0.96132487    -0.07300
C856        C  0.14804983  0.81900334  0.96729946    -0.08100
C857        C  0.16437234  0.79889131  0.93923000    -0.02600
C858        C  0.16915313  0.81195617  0.90350555     0.04200
N859        N  0.18547039  0.79235137  0.87384370     0.66700
H860        H  0.16592821  0.85553552  0.87010161     0.15600
H861        H  0.14327186  0.80892142  0.99476087     0.15300
N862        N  0.12430862  0.87163819  0.99178219     0.74400
O863        O  0.16064488  0.78043969  0.85027743    -0.39000
O864        O  0.22347454  0.79483633  0.86570242    -0.39000
O865        O  0.08611285  0.87086745  0.99964025    -0.39700
O866        O  0.14989923  0.88215424  0.01553126    -0.39700
C867        C  0.28596643  0.74721345  0.54566509    -0.12000
C868        C  0.25817825  0.72251260  0.53394876     0.05000
C869        C  0.25002221  0.69562759  0.55768709    -0.07300
C870        C  0.26564942  0.69601923  0.59377686    -0.08100
C871        C  0.28978364  0.72260796  0.60668375    -0.02600
C872        C  0.30221813  0.74720398  0.58155510     0.04200
N873        N  0.33187332  0.77191857  0.59168753     0.66700
H874        H  0.29426398  0.76707962  0.52722667     0.15600
H875        H  0.25630578  0.67660834  0.61241219     0.15300
N876        N  0.22317214  0.66912539  0.54698795     0.74400
O877        O  0.37010849  0.76554677  0.58765573    -0.39000
O878        O  0.32019327  0.80175312  0.59490827    -0.39000
O879        O  0.21058691  0.64749621  0.03791991    -0.39700
O880        O  0.18487489  0.67116044  0.55432782    -0.39700
C881        C  0.26729747  0.62569771  0.76152465    -0.12000
C882        C  0.29869770  0.60335707  0.75031258     0.05000
C883        C  0.33196761  0.61534330  0.72882481    -0.07300
C884        C  0.33181799  0.64838110  0.71722340    -0.08100
C885        C  0.29947502  0.67026452  0.72691612    -0.02600
C886        C  0.26761878  0.65901645  0.75031849     0.04200
N887        N  0.23407288  0.68031810  0.76118727     0.66700
H888        H  0.24199676  0.61715416  0.77856728     0.15600
H889        H  0.35627824  0.65662853  0.69902738     0.15300
N890        N  0.36464099  0.59393616  0.71613037     0.74400
O891        O  0.20070805  0.67999227  0.74274031    -0.39000
O892        O  0.23367120  0.69194817  0.79360850    -0.39000
O893        O  0.36356050  0.58321820  0.68333475    -0.39700
O894        O  0.39875687  0.59345811  0.73345935    -0.39700
C895        C  0.27652510  0.33268539  0.82125734    -0.12000
C896        C  0.29156224  0.35916812  0.84280994     0.05000
C897        C  0.30794024  0.35235763  0.87817825    -0.07300
C898        C  0.30900250  0.31993113  0.89117871    -0.08100
C899        C  0.29371441  0.29323497  0.87008339    -0.02600
C900        C  0.27698061  0.29997985  0.83464466     0.04200
N901        N  0.25885103  0.27451087  0.81235812     0.66700
H902        H  0.26335135  0.33744836  0.79425244     0.15600
H903        H  0.32248405  0.31590717  0.91819962     0.15300
N904        N  0.32484759  0.37786381  0.90121089     0.74400
O905        O  0.22001321  0.27025210  0.81361225    -0.39000
O906        O  0.27897296  0.26314119  0.78516912    -0.39000
O907        O  0.30355739  0.38883261  0.92790006    -0.39700
O908        O  0.36355302  0.38288207  0.90083165    -0.39700
C909        C  0.42975800  0.35458825  0.62297428    -0.12000
C910        C  0.42585283  0.36458625  0.65999358     0.05000
C911        C  0.41555815  0.34059084  0.68683264    -0.07300
C912        C  0.40686553  0.30805764  0.67581269    -0.08100
C913        C  0.40695106  0.29905962  0.63837147    -0.02600
C914        C  0.41994488  0.32239300  0.61190096     0.04200
N915        N  0.42243069  0.31432205  0.57348568     0.66700
H916        H  0.43806611  0.37226979  0.60190672     0.15600
H917        H  0.39732726  0.29039803  0.69648978     0.15300
N918        N  0.41213997  0.34883336  0.72516317     0.74400
O919        O  0.39345076  0.32371261  0.55232646    -0.39000
O920        O  0.45753107  0.30750359  0.55977372    -0.39000
O921        O  0.37654606  0.35433831  0.73860806    -0.39700
O922        O  0.44174431  0.34142470  0.74662150    -0.39700
C923        C  0.12754071  0.63077725  0.91170460    -0.12000
C924        C  0.16228024  0.61098110  0.90317464     0.05000
C925        C  0.20163720  0.62590274  0.89889585    -0.07300
C926        C  0.20626436  0.65942756  0.90758343    -0.08100
C927        C  0.17232035  0.67819900  0.92006432    -0.02600
C928        C  0.13224406  0.66442030  0.91995022     0.04200
N929        N  0.09687358  0.68314208  0.93208223     0.66700
H930        H  0.09715459  0.61964596  0.91433116     0.15600
H931        H  0.23710539  0.67005467  0.90775794     0.15300
N932        N  0.23812872  0.60680335  0.89053272     0.74400
O933        O  0.07268780  0.69567857  0.90836705    -0.39000
O934        O  0.08450855  0.68011750  0.96492037    -0.39000
O935        O  0.25495847  0.60992451  0.85930992    -0.39700
O936        O  0.25897833  0.59431301  0.91664976    -0.39700
C937        C  0.63387948  0.53101699  0.43748675     0.80500
N938        N  0.63485907  0.56433451  0.43237155    -0.77800
C939        C  0.65579129  0.57784664  0.40392001     0.82900
N940        N  0.67513910  0.55778501  0.37956579    -0.77800
C941        C  0.67466752  0.52444164  0.38360351     0.83000
N942        N  0.65488717  0.51060032  0.41335285    -0.79500
C943        C  0.94794009  0.45503810  0.15311750     0.80500
N944        N  0.92434855  0.46838254  0.18092192    -0.77800
C945        C  0.90502869  0.44753516  0.20521135     0.82900
N946        N  0.90934161  0.41412586  0.20127459    -0.77800
C947        C  0.93313395  0.40097246  0.17415342     0.83000
N948        N  0.95172822  0.42165662  0.15007558    -0.79500
Zn949      Zn  0.73615267  0.50772319  0.27849278     1.49700
Zn950      Zn  0.83564933  0.50881269  0.28416695     1.49400
Zn951      Zn  0.78300952  0.46931876  0.34748152     1.49100
Zn952      Zn  0.78949135  0.44214627  0.26544792     1.49500
O953        O  0.78575032  0.48233762  0.29429608    -1.83900
O954        O  0.75229606  0.55444631  0.26268726    -0.74500
O955        O  0.86338297  0.51808075  0.33268305    -0.74300
O956        O  0.73093418  0.48830244  0.37083615    -0.73800
O957        O  0.82128028  0.55375967  0.26380173    -0.74500
O958        O  0.69927516  0.51371191  0.32369254    -0.74100
O959        O  0.83190634  0.48948191  0.37705693    -0.74700
O960        O  0.78407309  0.40122631  0.29623654    -0.74100
O961        O  0.87572659  0.48764555  0.24700820    -0.74900
O962        O  0.77939541  0.41923879  0.35411457    -0.74200
O963        O  0.84308710  0.43994067  0.23777102    -0.74700
O964        O  0.74449074  0.44052512  0.22764421    -0.74600
O965        O  0.70570088  0.48603012  0.23393324    -0.74400
C966        C  0.78707610  0.56876623  0.25760569     0.77400
C967        C  0.85941972  0.51009281  0.36651558     0.77900
C968        C  0.70149305  0.50606275  0.35790640     0.76800
C969        C  0.77982706  0.39562311  0.33054360     0.77200
C970        C  0.87332603  0.45931157  0.23149245     0.78300
C971        C  0.71419176  0.45873275  0.21739477     0.77400
C972        C  0.69529823  0.76443062  0.45865667     0.80500
N973        N  0.71987647  0.75868131  0.48852439    -0.77800
C974        C  0.70614665  0.73105270  0.99602053     0.82900
N975        N  0.71797239  0.70164869  0.47703009    -0.77800
C976        C  0.69351313  0.70720095  0.44694979     0.83000
N977        N  0.68192040  0.73852094  0.43784601    -0.79500
C978        C  0.78222505  0.70210335  0.20053927     0.80500
N979        N  0.77646691  0.70116517  0.16344241    -0.77800
C980        C  0.77396384  0.72947638  0.14355819     0.82900
N981        N  0.77756970  0.75897717  0.16122807    -0.77800
C982        C  0.78350267  0.76060803  0.19839343     0.83000
N983        N  0.78549411  0.73192957  0.21829751    -0.79500
C984        C  0.63036364  0.95454273  0.44597839     0.80500
N985        N  0.63594367  0.92195626  0.45408425    -0.77800
C986        C  0.65678875  0.90157272  0.43090447     0.82900
N987        N  0.67317328  0.91412372  0.39975211    -0.77800
C988        C  0.66877994  0.94659738  0.39099709     0.83000
N989        N  0.64670347  0.96724630  0.41408385    -0.79500
C990        C  0.93460271  0.02784610  0.15179662     0.80500
N991        N  0.90965827  0.00954357  0.17442670    -0.77800
C992        C  0.89238973  0.02456564  0.20496219     0.82900
N993        N  0.89875656  0.05742230  0.21132751    -0.77800
C994        C  0.92276264  0.07558610  0.18857021     0.83000
N995        N  0.94044227  0.06052833  0.15923261    -0.80300
Zn996      Zn  0.82447138  0.00939962  0.30757510     1.49700
Zn997      Zn  0.78217696  0.96973148  0.23878289     1.49400
Zn998      Zn  0.77653657  0.94224371  0.32030110     1.49100
Zn999      Zn  0.72412572  0.00639278  0.30253207     1.49500
O1000       O  0.77683931  0.98229809  0.29184973    -1.83900
O1001       O  0.86212813  0.01675671  0.26347283    -0.74500
O1002       O  0.78491795  0.91961025  0.23170685    -0.74300
O1003       O  0.82406536  0.94184210  0.35532676    -0.73800
O1004       O  0.83501086  0.98881068  0.21604476    -0.74500
O1005       O  0.85707888  0.98989735  0.35184507    -0.74100
O1006       O  0.78084155  0.90095738  0.28907407    -0.74700
O1007       O  0.68771460  0.98541298  0.34317070    -0.74100
O1008       O  0.73356099  0.98983062  0.20958886    -0.74900
O1009       O  0.72621934  0.94027886  0.35218989    -0.74200
O1010       O  0.69501891  0.01367304  0.25384566    -0.74700
O1011       O  0.73511152  0.05282915  0.32042443    -0.74600
O1012       O  0.80405108  0.05482524  0.32202535    -0.74400
C1013       C  0.86254563  0.00801744  0.22951472     0.77400
C1014       C  0.78452923  0.89561932  0.25455811     0.77900
C1015       C  0.85235734  0.96142017  0.36639759     0.76800
C1016       C  0.69488470  0.95837170  0.36023641     0.77200
C1017       C  0.70259668  0.00760753  0.21985805     0.78300
C1018       C  0.76858898  0.06870863  0.32590170     0.77400
C1019       C  0.77918031  0.26058325  0.38232695     0.80500
N1020       N  0.77439478  0.23233583  0.36195924    -0.77800
C1021       C  0.77711145  0.20228932  0.37893168     0.82900
N1022       N  0.78559209  0.20055212  0.41555802    -0.77800
C1023       C  0.79107587  0.22855713  0.43564092     0.83000
N1024       N  0.78725144  0.25842242  0.41896944    -0.79500
C1025       C  0.90488973  0.26494240  0.13325440     0.80500
N1026       N  0.91111198  0.23797283  0.15517268    -0.77800
C1027       C  0.89611391  0.20788338  0.14458861     0.82900
N1028       N  0.87565572  0.20473732  0.11188002    -0.77800
C1029       C  0.86906234  0.23159375  0.09016638     0.83000
N1030       N  0.88374771  0.26148443  0.10102263    -0.79500
C1031       C  0.68883077  0.44600914  0.18641915     0.80500
N1032       N  0.68585666  0.41250290  0.18282389    -0.77800
C1033       C  0.66433128  0.39877715  0.15454495     0.82900
N1034       N  0.64644884  0.41876512  0.12919279    -0.77800
C1035       C  0.64903155  0.45219833  0.13191096     0.83000
N1036       N  0.66921224  0.46620401  0.16141356    -0.79500
C1037       C  0.88428761  0.52925147  0.39331160     0.80500
N1038       N  0.89175626  0.56138458  0.38438464    -0.77800
C1039       C  0.91346721  0.58130531  0.40731745     0.82900
N1040       N  0.92889893  0.56871772  0.43897157    -0.77800
C1041       C  0.92307376  0.53652067  0.44831704     0.83000
N1042       N  0.90019995  0.51639627  0.42546486    -0.79500
Zn1043     Zn  0.54352437  0.51143264  0.09733315     1.49700
Zn1044     Zn  0.98330391  0.47313311  0.03983633     1.49400
Zn1045     Zn  0.53370701  0.53526468  0.01465444     1.49100
Zn1046     Zn  0.58317034  0.46813055  0.02870576     1.49500
O1047       O  0.53589854  0.49651388  0.04551853    -1.83900
O1048       O  0.49797560  0.49324861  0.13115787    -0.74500
O1049       O  0.94359293  0.49301345  0.99996410    -0.74300
O1050       O  0.53772484  0.57845321  0.04271678    -0.73800
O1051       O  0.95708273  0.46732937  0.09033310    -0.74500
O1052       O  0.54640006  0.56150028  0.10051258    -0.74100
O1053       O  0.98168205  0.54150818  0.48562088    -0.74700
O1054       O  0.61379606  0.49124178  0.48442459    -0.74100
O1055       O  0.99504628  0.42639744  0.02440335    -0.74900
O1056       O  0.57969325  0.53924318  0.47966652    -0.74200
O1057       O  0.56248276  0.42169587  0.01693009    -0.74700
O1058       O  0.62130263  0.46106834  0.07264473    -0.74600
O1059       O  0.59685646  0.49224087  0.11895187    -0.74400
C1060       C  0.96738127  0.47451540  0.12350453     0.77400
C1061       C  0.94982444  0.52403157  0.47857121     0.77900
C1062       C  0.54373000  0.58470926  0.07676196     0.76800
C1063       C  0.60800189  0.51925551  0.46865345     0.77200
C1064       C  0.52627111  0.40897836  0.01730793     0.78300
C1065       C  0.62262797  0.47099624  0.10618267     0.77400
C1066       C  0.00720805  0.27968901  0.45249376     0.80500
N1067       N  0.50931768  0.28306718  0.41505440    -0.77800
C1068       C  0.51203545  0.25586381  0.39310192     0.82900
N1069       N  0.51468154  0.22543989  0.40879573    -0.77800
C1070       C  0.01251727  0.22117769  0.44631208     0.83000
N1071       N  0.01045316  0.24894305  0.46823831    -0.79500
C1072       C  0.59964373  0.21424511  0.20273031     0.80500
N1073       N  0.57317440  0.21859760  0.23157083    -0.77800
C1074       C  0.55995951  0.24930643  0.24170864     0.82900
N1075       N  0.57399991  0.27592995  0.22284305    -0.77800
C1076       C  0.60049159  0.27211547  0.19398450     0.83000
N1077       N  0.61384002  0.24119125  0.18419000    -0.79500
C1078       C  0.67831729  0.02643179  0.19250682     0.80500
N1079       N  0.66215792  0.01256603  0.16097043    -0.77800
C1080       C  0.64009064  0.03228149  0.13714443     0.82900
N1081       N  0.63525641  0.06499630  0.14492446    -0.77800
C1082       C  0.65105413  0.07876472  0.17585474     0.83000
N1083       N  0.67212472  0.05924640  0.19981765    -0.79500
C1084       C  0.88009241  0.94858510  0.39556380     0.80500
N1085       N  0.88458777  0.91513459  0.39711925    -0.77800
C1086       C  0.90804668  0.90055327  0.42345366     0.82900
N1087       N  0.92659145  0.91985706  0.44922482    -0.77800
C1088       C  0.92264104  0.95337073  0.44854687     0.83000
N1089       N  0.90009397  0.96819952  0.42091541    -0.79500
Zn1090     Zn  0.53023706  0.03560508  0.07058479     1.49700
Zn1091     Zn  0.98120368  0.96830490  0.05652070     1.49400
Zn1092     Zn  0.52591115  0.01222173  0.48972955     1.49100
Zn1093     Zn  0.58156116  0.97193034  0.04981849     1.49500
O1094       O  0.52904429  0.99617821  0.04083921    -1.83900
O1095       O  0.48621786  0.03319659  0.10715276    -0.74500
O1096       O  0.94545336  0.96166461  0.01031670    -0.74300
O1097       O  0.52299877  0.06270038  0.48344808    -0.73800
O1098       O  0.94903801  0.98759529  0.10256419    -0.74500
O1099       O  0.52379191  0.07916582  0.04407293    -0.74100
O1100       O  0.97570236  0.99157135  0.46412365    -0.74700
O1101       O  0.61050429  0.96678445  0.00088159    -0.74100
O1102       O  0.50045364  0.92113072  0.06895544    -0.74900
O1103       O  0.57602302  0.99289061  0.46150506    -0.74200
O1104       O  0.56898023  0.92512554  0.06484408    -0.74700
O1105       O  0.61932095  0.99183164  0.09085853    -0.74600
O1106       O  0.58158477  0.03731254  0.10000065    -0.74400
C1107       C  0.95751172  0.01473676  0.11940747     0.77400
C1108       C  0.94786994  0.97174891  0.47560809     0.77900
C1109       C  0.52200513  0.08538698  0.00977527     0.76800
C1110       C  0.60536873  0.97384705  0.47256871     0.77200
C1111       C  0.53661862  0.90799019  0.07104900     0.78300
C1112       C  0.61304966  0.01935821  0.10750577     0.77400
C1113       C  0.96788813  0.71419797  0.37549135     0.80500
N1114       N  0.49586697  0.71737639  0.34885745    -0.77800
C1115       C  0.50978306  0.74757060  0.33856258     0.82900
N1116       N  0.49732187  0.77482859  0.35779928    -0.77800
C1117       C  0.97033807  0.77199718  0.38512373     0.83000
N1118       N  0.95580197  0.74167782  0.39466771    -0.79500
C1119       C  0.56716763  0.71784365  0.13216556     0.80500
N1120       N  0.56303017  0.72033085  0.16940811    -0.77800
C1121       C  0.55777843  0.75036016  0.18589585     0.82900
N1122       N  0.55728198  0.77813319  0.16495996    -0.77800
C1123       C  0.56216458  0.77613776  0.12782999     0.83000
N1124       N  0.56596045  0.74588520  0.11122858    -0.79500
C1125       C  0.57059921  0.73193383  0.25036072    -0.12000
C1126       C  0.54853249  0.75235029  0.22574043     0.05000
C1127       C  0.51606588  0.77276338  0.23930593    -0.07300
C1128       C  0.50653438  0.77260697  0.27691452    -0.08100
C1129       C  0.52757383  0.75141454  0.30136369    -0.02600
C1130       C  0.05800965  0.73076031  0.28565212     0.04200
N1131       N  0.07906690  0.70799390  0.30948812     0.66700
H1132       H  0.09362826  0.71539070  0.23841819     0.15600
H1133       H  0.48035032  0.78731382  0.28651644     0.15300
N1134       N  0.48914811  0.79063013  0.21483412     0.74400
O1135       O  0.06903730  0.67777742  0.30873115    -0.39000
O1136       O  0.11374582  0.71605891  0.32313592    -0.39000
O1137       O  0.45598882  0.77714318  0.20382507    -0.39700
O1138       O  0.49308116  0.82162436  0.21178419    -0.39700
C1139       C  0.58307055  0.86033289  0.08748006    -0.12000
C1140       C  0.54228756  0.87232274  0.08132800     0.05000
C1141       C  0.50879879  0.84997144  0.08569033    -0.07300
C1142       C  0.51646482  0.81762753  0.09833598    -0.08100
C1143       C  0.55695615  0.80665355  0.10616238    -0.02600
C1144       C  0.59057395  0.82788021  0.09954400     0.04200
N1145       N  0.63248935  0.81727188  0.10599809     0.66700
H1146       H  0.60953034  0.87640456  0.08380550     0.15600
H1147       H  0.49042505  0.80142120  0.10355709     0.15300
N1148       N  0.46673874  0.85958629  0.07832592     0.74400
O1149       O  0.65338475  0.80556482  0.07943906    -0.39000
O1150       O  0.65122638  0.82715569  0.13463412    -0.39000
O1151       O  0.44992495  0.85031938  0.04850577    -0.39700
O1152       O  0.44391968  0.86876377  0.10483204    -0.39700
C1153       C  0.91113839  0.81032767  0.39253604    -0.12000
C1154       C  0.95230356  0.80205503  0.40158394     0.05000
C1155       C  0.97681741  0.82474416  0.42140708    -0.07300
C1156       C  0.96027378  0.85572167  0.43105737    -0.08100
C1157       C  0.92000849  0.86518259  0.41975124    -0.02600
C1158       C  0.89496227  0.84181528  0.40085236     0.04200
N1159       N  0.85382386  0.84990710  0.38849375     0.66700
H1160       H  0.89235803  0.79304881  0.37684782     0.15600
H1161       H  0.98022343  0.87319329  0.44521616     0.15300
N1162       N  0.52114115  0.81878189  0.43048693     0.74400
O1163       O  0.84841878  0.85932442  0.35561830    -0.39000
O1164       O  0.82306948  0.83948665  0.40652595    -0.39000
O1165       O  0.54886318  0.83104051  0.41016976    -0.39700
O1166       O  0.53102409  0.80814497  0.46204978    -0.39700
C1167       C  0.63605187  0.13573206  0.15359760    -0.12000
C1168       C  0.64245735  0.11426025  0.18362447     0.05000
C1169       C  0.63712593  0.12672689  0.21979364    -0.07300
C1170       C  0.62373687  0.15948195  0.22512809    -0.08100
C1171       C  0.61617599  0.18061224  0.19506882    -0.02600
C1172       C  0.62340031  0.16869715  0.15899336     0.04200
N1173       N  0.61597924  0.18900591  0.12740275     0.66700
H1174       H  0.64025509  0.12677190  0.12562731     0.15600
H1175       H  0.61894038  0.16834761  0.25305898     0.15300
N1176       N  0.64341128  0.10629592  0.25146202     0.74400
O1177       O  0.64612517  0.20391059  0.11284130    -0.39000
O1178       O  0.58298857  0.18505919  0.10899232    -0.39000
O1179       O  0.67677484  0.10894466  0.26965151    -0.39700
O1180       O  0.61263493  0.09211419  0.26590297    -0.39700
C1181       C  0.53363626  0.12789831  0.45593877    -0.12000
C1182       C  0.51838849  0.12175501  0.49147647     0.05000
C1183       C  0.50612454  0.14732219  0.01848405    -0.07300
C1184       C  0.50644905  0.17968366  0.00413549    -0.08100
C1185       C  0.51780370  0.18728883  0.46165998    -0.02600
C1186       C  0.53345984  0.15989179  0.44091256     0.04200
N1187       N  0.04669911  0.16358339  0.40424198     0.66700
H1188       H  0.54644700  0.10772166  0.43962205     0.15600
H1189       H  0.49386101  0.19977908  0.02069394     0.15300
N1190       N  0.48887810  0.14239326  0.05434686     0.74400
O1191       O  0.58889869  0.16787109  0.40103342    -0.39000
O1192       O  0.02518690  0.15347157  0.37728238    -0.39000
O1193       O  0.50761837  0.15400098  0.08214658    -0.39700
O1194       O  0.45093673  0.13499730  0.05714063    -0.39700
C1195       C  0.50342275  0.23128158  0.33094638    -0.12000
C1196       C  0.51545970  0.25862705  0.35249098     0.05000
C1197       C  0.03309111  0.28505149  0.33553330    -0.07300
C1198       C  0.54571790  0.28327394  0.29771513    -0.08100
C1199       C  0.53798489  0.25416419  0.27729333    -0.02600
C1200       C  0.51445896  0.22876137  0.29376829     0.04200
N1201       N  0.50222873  0.19981249  0.27365447     0.66700
H1202       H  0.48692809  0.21089746  0.34343260     0.15600
H1203       H  0.06200637  0.30277271  0.28647150     0.15300
N1204       N  0.04495301  0.31402630  0.35581528     0.74400
O1205       O  0.52213461  0.17306877  0.27852380    -0.39000
O1206       O  0.46584245  0.19859233  0.26054247    -0.39000
O1207       O  0.08166067  0.31626959  0.36800546    -0.39700
O1208       O  0.02275645  0.33989791  0.35348808    -0.39700
C1209       C  0.53771783  0.67906487  0.08554378    -0.12000
C1210       C  0.56564069  0.68457316  0.11480063     0.05000
C1211       C  0.58709685  0.65726393  0.13019085    -0.07300
C1212       C  0.57907304  0.62515122  0.11741599    -0.08100
C1213       C  0.55021852  0.61940520  0.08901240    -0.02600
C1214       C  0.52981348  0.64682962  0.07255489     0.04200
N1215       N  0.49895821  0.64237100  0.04448705     0.66700
H1216       H  0.52040096  0.69966503  0.07391409     0.15600
H1217       H  0.59603291  0.60458214  0.12952967     0.15300
N1218       N  0.61821137  0.66170978  0.15799737     0.74400
O1219       O  0.46111404  0.64125445  0.05357504    -0.39000
O1220       O  0.50824089  0.64793760  0.01126988    -0.39000
O1221       O  0.61058249  0.65299309  0.19068915    -0.39700
O1222       O  0.65554325  0.66538703  0.14822048    -0.39700
C1223       C  0.54632822  0.31914740  0.49403113    -0.12000
C1224       C  0.50992186  0.31087356  0.47473240     0.05000
C1225       C  0.97714085  0.33505949  0.47072953    -0.07300
C1226       C  0.98328003  0.36710165  0.48476645    -0.08100
C1227       C  0.52156459  0.37630266  0.50229401    -0.02600
C1228       C  0.55261903  0.35158823  0.50745229     0.04200
N1229       N  0.59109529  0.35895876  0.52543886     0.66700
H1230       H  0.57107359  0.30097025  0.49667951     0.15600
H1231       H  0.95883385  0.38534821  0.48087402     0.15300
N1232       N  0.93963074  0.32828427  0.45083989     0.74400
O1233       O  0.59531354  0.35236183  0.55928041    -0.39000
O1234       O  0.62308473  0.36370381  0.50609598    -0.39000
O1235       O  0.90633223  0.32394100  0.46848412    -0.39700
O1236       O  0.93770150  0.33512208  0.41690426    -0.39700
C1237       C  0.95091990  0.65680042  0.35571151    -0.12000
C1238       C  0.95029717  0.68110390  0.38374841     0.05000
C1239       C  0.93331856  0.67285742  0.41849286    -0.07300
C1240       C  0.92024089  0.64036481  0.42511712    -0.08100
C1241       C  0.92267907  0.61591173  0.39749617    -0.02600
C1242       C  0.93719284  0.62455322  0.36219202     0.04200
N1243       N  0.94127048  0.60042063  0.33335167     0.66700
H1244       H  0.96278261  0.66254852  0.32858103     0.15600
H1245       H  0.90880409  0.63405537  0.45224889     0.15300
N1246       N  0.41690173  0.69899172  0.44405199     0.74400
O1247       O  0.91300938  0.59822376  0.30921919    -0.39000
O1248       O  0.97665642  0.58802469  0.32672424    -0.39000
O1249       O  0.38053189  0.71102056  0.44351484    -0.39700
O1250       O  0.43888259  0.70249141  0.47271694    -0.39700
C1251       C  0.66103718  0.30681192  0.17575632    -0.12000
C1252       C  0.61769455  0.30205509  0.17668777     0.05000
C1253       C  0.59101080  0.32818991  0.16603406    -0.07300
C1254       C  0.60749576  0.35864544  0.15587159    -0.08100
C1255       C  0.65042189  0.36417805  0.15715623    -0.02600
C1256       C  0.67753294  0.33788262  0.16635946     0.04200
N1257       N  0.72155564  0.34273806  0.16688652     0.66700
H1258       H  0.68192132  0.28699754  0.18421168     0.15600
H1259       H  0.58623694  0.37880104  0.14932627     0.15300
N1260       N  0.54685504  0.32476439  0.16709280     0.74400
O1261       O  0.73996162  0.34775679  0.19721152    -0.39000
O1262       O  0.74060656  0.34765135  0.13700028    -0.39000
O1263       O  0.52695887  0.33712828  0.19387937    -0.39700
O1264       O  0.52766206  0.31753679  0.13774879    -0.39700
C1265       C  0.86396501  0.20169605  0.03040959    -0.12000
C1266       C  0.85052861  0.22795457  0.05310064     0.05000
C1267       C  0.82337507  0.25221797  0.03851745    -0.07300
C1268       C  0.81169236  0.25071308  0.00134686    -0.08100
C1269       C  0.80176922  0.22708126  0.47516880    -0.02600
C1270       C  0.82668619  0.20138039  0.49011995     0.04200
N1271       N  0.84302096  0.17517560  0.46754804     0.66700
H1272       H  0.88539667  0.18326701  0.04109014     0.15600
H1273       H  0.79102200  0.26967772  0.99062955     0.15300
N1274       N  0.80646780  0.27806919  0.06127418     0.74400
O1275       O  0.87712315  0.17933369  0.45106192    -0.39000
O1276       O  0.82923824  0.14614927  0.47132821    -0.39000
O1277       O  0.81872359  0.30747804  0.05706124    -0.39700
O1278       O  0.77306410  0.27298413  0.07850780    -0.39700
C1279       C  0.80092659  0.12423293  0.32609319    -0.12000
C1280       C  0.76698575  0.10432792  0.33592494     0.05000
C1281       C  0.73346833  0.11886188  0.35562224    -0.07300
C1282       C  0.73598141  0.15204704  0.36707706    -0.08100
C1283       C  0.77096579  0.17115242  0.35874517    -0.02600
C1284       C  0.80311731  0.15736902  0.33734789     0.04200
N1285       N  0.83972586  0.17585991  0.32934218     0.66700
H1286       H  0.82656767  0.11380351  0.31048501     0.15600
H1287       H  0.71149575  0.16244935  0.38412281     0.15300
N1288       N  0.69830211  0.09986540  0.36682173     0.74400
O1289       O  0.87060305  0.17394948  0.35085168    -0.39000
O1290       O  0.84441673  0.18779250  0.29749327    -0.39000
O1291       O  0.69759405  0.08794884  0.39897150    -0.39700
O1292       O  0.66466492  0.10247784  0.34898058    -0.39700
C1293       C  0.94574078  0.16524365  0.16695032    -0.12000
C1294       C  0.90496423  0.17785954  0.16622469     0.05000
C1295       C  0.87238721  0.15867312  0.18055551    -0.07300
C1296       C  0.88036573  0.12639619  0.19264618    -0.08100
C1297       C  0.92010640  0.11217969  0.18904027    -0.02600
C1298       C  0.95353440  0.13237570  0.17776251     0.04200
N1299       N  0.99510416  0.11957805  0.17563307     0.66700
H1300       H  0.97102200  0.17993619  0.15623819     0.15600
H1301       H  0.85434983  0.11135121  0.20116497     0.15300
N1302       N  0.83041877  0.17059072  0.18041705     0.74400
O1303       O  0.00811389  0.10750159  0.14555500    -0.39000
O1304       O  0.02110652  0.12766533  0.20019752    -0.39000
O1305       O  0.80696397  0.16311841  0.15367638    -0.39700
O1306       O  0.81434568  0.18024811  0.21038471    -0.39700
C1307       C  0.80364238  0.81957178  0.19377180    -0.12000
C1308       C  0.78772077  0.79395273  0.21568374     0.05000
C1309       C  0.77407679  0.80169375  0.25175873    -0.07300
C1310       C  0.77416738  0.83481075  0.26407292    -0.08100
C1311       C  0.78783338  0.86070707  0.24116669    -0.02600
C1312       C  0.80392636  0.85250102  0.20601219     0.04200
N1313       N  0.82159188  0.87698424  0.18245711     0.66700
H1314       H  0.81587872  0.81410576  0.16661287     0.15600
H1315       H  0.76225826  0.84030633  0.29135927     0.15300
N1316       N  0.75824275  0.77675281  0.27572447     0.74400
O1317       O  0.86019360  0.88231199  0.18426515    -0.39000
O1318       O  0.80168160  0.88612013  0.15414768    -0.39000
O1319       O  0.78035127  0.76694125  0.30243752    -0.39700
O1320       O  0.71969011  0.77104649  0.27586905    -0.39700
C1321       C  0.66570547  0.84385048  0.40915875    -0.12000
C1322       C  0.66243203  0.86603972  0.43902936     0.05000
C1323       C  0.66687008  0.85389281  0.47532877    -0.07300
C1324       C  0.67652117  0.82048218  0.48079438    -0.08100
C1325       C  0.68163572  0.79861788  0.45084057    -0.02600
C1326       C  0.67511270  0.81038625  0.41466339     0.04200
N1327       N  0.68030632  0.78942758  0.38305394     0.66700
H1328       H  0.66175645  0.85265207  0.38111405     0.15600
H1329       H  0.68079834  0.81173861  0.50884480     0.15300
N1330       N  0.66428841  0.87523093  0.50689441     0.74400
O1331       O  0.64848995  0.77716245  0.36790733    -0.39000
O1332       O  0.71368632  0.79099850  0.36489869    -0.39000
O1333       O  0.63236786  0.87410601  0.52705731    -0.39700
O1334       O  0.69725211  0.88759562  0.51983496    -0.39700
C1335       C  0.75409664  0.75343439  0.04354688    -0.12000
C1336       C  0.72685011  0.72818372  0.03237751     0.05000
C1337       C  0.71860105  0.70194368  0.05686351    -0.07300
C1338       C  0.73647864  0.70197629  0.09211580    -0.08100
C1339       C  0.76193989  0.72814549  0.10406059    -0.02600
C1340       C  0.77167928  0.75364971  0.07893941     0.04200
N1341       N  0.79969607  0.77974085  0.08848592     0.66700
H1342       H  0.76149401  0.77336823  0.02483092     0.15600
H1343       H  0.72830257  0.68234664  0.11091117     0.15300
N1344       N  0.68928881  0.67664360  0.04786475     0.74400
O1345       O  0.83755430  0.77681180  0.07980408    -0.39000
O1346       O  0.78518819  0.80823172  0.09565035    -0.39000
O1347       O  0.73357693  0.64139492  0.53868631    -0.39700
O1348       O  0.65128343  0.68148504  0.05490567    -0.39700
C1349       C  0.75568836  0.62557397  0.25572553    -0.12000
C1350       C  0.78779141  0.60374054  0.24486259     0.05000
C1351       C  0.81987834  0.61584939  0.22202832    -0.07300
C1352       C  0.81852249  0.64872220  0.20968721    -0.08100
C1353       C  0.78613220  0.67025019  0.22009844    -0.02600
C1354       C  0.75484203  0.65867285  0.24380059     0.04200
N1355       N  0.72068081  0.67953038  0.25421817     0.66700
H1356       H  0.73085125  0.61684104  0.27314590     0.15600
H1357       H  0.84218040  0.65717615  0.19080369     0.15300
N1358       N  0.85241650  0.59458270  0.20877677     0.74400
O1359       O  0.68789948  0.67933442  0.23496636    -0.39000
O1360       O  0.71967736  0.69174302  0.28635810    -0.39000
O1361       O  0.84924815  0.58182777  0.17700029    -0.39700
O1362       O  0.88757592  0.59528600  0.22434669    -0.39700
C1363       C  0.79960179  0.33628905  0.32370511    -0.12000
C1364       C  0.77657375  0.36071880  0.34273067     0.05000
C1365       C  0.75125467  0.35110997  0.37256654    -0.07300
C1366       C  0.75147309  0.31798336  0.38413750    -0.08100
C1367       C  0.77568407  0.29386894  0.36586135    -0.02600
C1368       C  0.79926043  0.30308994  0.33494052     0.04200
N1369       N  0.82519974  0.27959940  0.31614199     0.66700
H1370       H  0.81896483  0.34313364  0.30063121     0.15600
H1371       H  0.73269102  0.31105363  0.40757514     0.15300
N1372       N  0.72353722  0.37411307  0.39015767     0.74400
O1373       O  0.81234460  0.26644753  0.28658811    -0.39000
O1374       O  0.86345006  0.27811656  0.32398221    -0.39000
O1375       O  0.68617250  0.37566549  0.37942944    -0.39700
O1376       O  0.73308925  0.38603254  0.42130659    -0.39700
C1377       C  0.93718232  0.35493407  0.12920300    -0.12000
C1378       C  0.93237459  0.36490244  0.16610668     0.05000
C1379       C  0.92351226  0.34058096  0.19297118    -0.07300
C1380       C  0.91728443  0.30751251  0.18205037    -0.08100
C1381       C  0.91902689  0.29828872  0.14464898    -0.02600
C1382       C  0.93044867  0.32224959  0.11828544     0.04200
N1383       N  0.93500144  0.31414837  0.08004978     0.66700
H1384       H  0.94440694  0.37284742  0.10804266     0.15600
H1385       H  0.90912536  0.28938857  0.20270962     0.15300
N1386       N  0.92064524  0.34881556  0.23131518     0.74400
O1387       O  0.90598264  0.32167384  0.05804941    -0.39000
O1388       O  0.97105977  0.30926390  0.06737134    -0.39000
O1389       O  0.88526697  0.35052308  0.24626285    -0.39700
O1390       O  0.95249292  0.34559189  0.25148184    -0.39700
C1391       C  0.63042436  0.63462776  0.41653800    -0.12000
C1392       C  0.66227571  0.61388593  0.40317817     0.05000
C1393       C  0.70190554  0.62743452  0.39592648    -0.07300
C1394       C  0.71048154  0.65974020  0.40744157    -0.08100
C1395       C  0.67991902  0.67891833  0.42491527    -0.02600
C1396       C  0.63887697  0.66726889  0.42702115     0.04200
N1397       N  0.60651120  0.68698127  0.44311341     0.66700
H1398       H  0.59962911  0.62479019  0.42126664     0.15600
H1399       H  0.74192996  0.66899621  0.40520848     0.15300
N1400       N  0.73511558  0.60790033  0.38083849     0.74400
O1401       O  0.58115268  0.70194765  0.42224662    -0.39000
O1402       O  0.59739904  0.68293640  0.47664708    -0.39000
O1403       O  0.74472923  0.61160384  0.34736322    -0.39700
O1404       O  0.76090737  0.59425925  0.40239514    -0.39700
C1405       C  0.63453378  0.52697961  0.93612153     0.80500
N1406       N  0.63431882  0.56033074  0.93120795    -0.77800
C1407       C  0.65557407  0.57452725  0.90341517     0.82900
N1408       N  0.67654062  0.55515453  0.87946090    -0.77800
C1409       C  0.67720527  0.52175203  0.88323776     0.83000
N1410       N  0.65697158  0.50721359  0.91233514    -0.79500
C1411       C  0.94224796  0.45405992  0.64770873     0.80500
N1412       N  0.92168394  0.46710496  0.67746023    -0.77800
C1413       C  0.90272988  0.44606069  0.70163239     0.82900
N1414       N  0.90485108  0.41282134  0.69603978    -0.77800
C1415       C  0.92586146  0.39983105  0.66717561     0.83000
N1416       N  0.94384373  0.42068494  0.64286100    -0.79500
Zn1417     Zn  0.74154347  0.50882218  0.77869784     1.49700
Zn1418     Zn  0.84078748  0.50532360  0.78601010     1.49400
Zn1419     Zn  0.78470274  0.46689716  0.84643199     1.49100
Zn1420     Zn  0.78912476  0.44097323  0.76412565     1.49500
O1421       O  0.78881761  0.48078237  0.79395140    -1.83900
O1422       O  0.76132466  0.55495206  0.76419802    -0.74500
O1423       O  0.86836932  0.51266981  0.83513804    -0.74300
O1424       O  0.73056171  0.48275764  0.86940199    -0.73800
O1425       O  0.83013346  0.55125118  0.76682445    -0.74500
O1426       O  0.70576108  0.51489483  0.82421117    -0.74100
O1427       O  0.83045646  0.48750936  0.87799384    -0.74700
O1428       O  0.78889846  0.39860242  0.79415996    -0.74100
O1429       O  0.87919761  0.48388297  0.74824448    -0.74900
O1430       O  0.78883488  0.41748069  0.85172720    -0.74200
O1431       O  0.84049849  0.44020704  0.73364218    -0.74700
O1432       O  0.74096593  0.44096498  0.72888358    -0.74600
O1433       O  0.70819098  0.48946522  0.73440661    -0.74400
C1434       C  0.79719213  0.56783901  0.76032037     0.77400
C1435       C  0.86074200  0.50586735  0.86879082     0.77900
C1436       C  0.70448560  0.50401878  0.85731770     0.76800
C1437       C  0.78993057  0.39344604  0.82883044     0.77200
C1438       C  0.87290790  0.45770610  0.72934323     0.78300
C1439       C  0.71259747  0.46120453  0.71871511     0.77400
C1440       C  0.67618774  0.76504300  0.95013754     0.80500
N1441       N  0.69580734  0.76142542  0.98310385    -0.77800
C1442       C  0.73128308  0.72743995  0.49797732     0.82900
N1443       N  0.69679740  0.70394713  0.97546512    -0.77800
C1444       C  0.67725550  0.70736750  0.94233276     0.83000
N1445       N  0.66674220  0.73790251  0.92957066    -0.79500
C1446       C  0.79964888  0.70064455  0.70266756     0.80500
N1447       N  0.80075763  0.69817983  0.66531611    -0.77800
C1448       C  0.79864419  0.72547569  0.64383294     0.82900
N1449       N  0.79521289  0.75563951  0.66018983    -0.77800
C1450       C  0.79385942  0.75895782  0.69762341     0.83000
N1451       N  0.79572903  0.73111408  0.71903901    -0.79500
C1452       C  0.62582394  0.95594938  0.93903290     0.80500
N1453       N  0.62584447  0.92266591  0.94365416    -0.77800
C1454       C  0.64525203  0.90218656  0.91969065     0.82900
N1455       N  0.66580661  0.91544462  0.89094896    -0.77800
C1456       C  0.66650762  0.94869308  0.88545661     0.83000
N1457       N  0.64610732  0.96947489  0.90956223    -0.79500
C1458       C  0.92823922  0.03109108  0.64682181     0.80500
N1459       N  0.90635504  0.01100866  0.67001104    -0.77800
C1460       C  0.88674640  0.02488136  0.69993614     0.82900
N1461       N  0.88750781  0.05823629  0.70519323    -0.77800
C1462       C  0.90857097  0.07808619  0.68202087     0.83000
N1463       N  0.92892148  0.06435586  0.65313340    -0.80300
Zn1464     Zn  0.82856722  0.00623218  0.80522927     1.49700
Zn1465     Zn  0.78002240  0.96902957  0.73714846     1.49400
Zn1466     Zn  0.77723006  0.94142762  0.81879489     1.49100
Zn1467     Zn  0.72873897  0.00887463  0.80201219     1.49500
O1468       O  0.77863531  0.98164048  0.79044392    -1.83900
O1469       O  0.86319716  0.01353472  0.75966452    -0.74500
O1470       O  0.77880311  0.91902031  0.72951503    -0.74300
O1471       O  0.82491440  0.93912441  0.85455277    -0.73800
O1472       O  0.83193604  0.98753577  0.71270753    -0.74500
O1473       O  0.86146195  0.98528981  0.84862359    -0.74100
O1474       O  0.77832108  0.90018035  0.78689737    -0.74700
O1475       O  0.69079744  0.98829236  0.84106512    -0.74100
O1476       O  0.73161882  0.99039442  0.70915412    -0.74900
O1477       O  0.72597273  0.94125009  0.84952084    -0.74200
O1478       O  0.69926388  0.01839430  0.75411320    -0.74700
O1479       O  0.74366666  0.05430773  0.82125589    -0.74600
O1480       O  0.81255857  0.05225849  0.82125468    -0.74400
C1481       C  0.86055520  0.00614465  0.72542351     0.77400
C1482       C  0.77867692  0.89490067  0.75217988     0.77900
C1483       C  0.85476752  0.95770576  0.86463481     0.76800
C1484       C  0.69550186  0.96044406  0.85709338     0.77200
C1485       C  0.70371572  0.01078011  0.72010409     0.78300
C1486       C  0.77865391  0.06810735  0.82636523     0.77400
C1487       C  0.79934675  0.25878451  0.88576117     0.80500
N1488       N  0.79401737  0.23050104  0.86556804    -0.77800
C1489       C  0.79923381  0.20036355  0.88200327     0.82900
N1490       N  0.80984974  0.19845093  0.91827137    -0.77800
C1491       C  0.81527534  0.22643761  0.93844276     0.83000
N1492       N  0.80964929  0.25621291  0.92204189    -0.79500
C1493       C  0.88869213  0.26560429  0.62619128     0.80500
N1494       N  0.89286170  0.23884955  0.64874931    -0.77800
C1495       C  0.87421223  0.20972264  0.63975518     0.82900
N1496       N  0.85224692  0.20727431  0.60784931    -0.77800
C1497       C  0.84773170  0.23388284  0.58549263     0.83000
N1498       N  0.86603562  0.26291403  0.59471823    -0.79500
C1499       C  0.68450047  0.44962865  0.68894893     0.80500
N1500       N  0.67890311  0.41635528  0.68622239    -0.77800
C1501       C  0.65523604  0.40317421  0.65908404     0.82900
N1502       N  0.63757557  0.42333742  0.63389180    -0.77800
C1503       C  0.64291898  0.45659391  0.63548858     0.83000
N1504       N  0.66550836  0.47027815  0.66389574    -0.79500
C1505       C  0.88365641  0.52482297  0.89680387     0.80500
N1506       N  0.88878140  0.55748282  0.88948935    -0.77800
C1507       C  0.90880672  0.57739946  0.91348699     0.82900
N1508       N  0.92519208  0.56439068  0.94451951    -0.77800
C1509       C  0.92170282  0.53161098  0.95223043     0.83000
N1510       N  0.90041099  0.51137608  0.92830562    -0.79500
Zn1511     Zn  0.53871534  0.51513421  0.59748119     1.49700
Zn1512     Zn  0.98126432  0.47568539  0.53594259     1.49400
Zn1513     Zn  0.53318320  0.54072911  0.51625167     1.49100
Zn1514     Zn  0.58182222  0.47189001  0.52973688     1.49500
O1515       O  0.53408283  0.50048543  0.54521831    -1.83900
O1516       O  0.49262889  0.49477759  0.62872195    -0.74500
O1517       O  0.94296053  0.49711735  0.49595410    -0.74300
O1518       O  0.53602455  0.58435907  0.54552033    -0.73800
O1519       O  0.95412479  0.46724878  0.58549325    -0.74500
O1520       O  0.53912029  0.56543580  0.60279610    -0.74100
O1521       O  0.98292099  0.53609392  0.98589816    -0.74700
O1522       O  0.61491124  0.48678165  0.98284430    -0.74100
O1523       O  0.99407607  0.42924753  0.51827143    -0.74900
O1524       O  0.57955931  0.53403175  0.97763679    -0.74200
O1525       O  0.56292786  0.42455791  0.51650396    -0.74700
O1526       O  0.61822750  0.46568934  0.57525333    -0.74600
O1527       O  0.59167570  0.49685745  0.62074185    -0.74400
C1528       C  0.96226774  0.47431096  0.61917086     0.77400
C1529       C  0.95022406  0.51909394  0.98107408     0.77900
C1530       C  0.53852110  0.58964324  0.58017880     0.76800
C1531       C  0.60848268  0.51457496  0.96685106     0.77200
C1532       C  0.52683713  0.41179020  0.51352696     0.78300
C1533       C  0.61814343  0.47575382  0.60881750     0.77400
C1534       C  0.00636259  0.27774660  0.95874778     0.80500
N1535       N  0.50841360  0.28089498  0.92136745    -0.77800
C1536       C  0.51183337  0.25371964  0.89951837     0.82900
N1537       N  0.51585238  0.22350075  0.91539368    -0.77800
C1538       C  0.01380306  0.21965509  0.95275871     0.83000
N1539       N  0.01118017  0.24729735  0.97454521    -0.79500
C1540       C  0.60466235  0.21745939  0.70837868     0.80500
N1541       N  0.57944294  0.21978908  0.73824487    -0.77800
C1542       C  0.56305687  0.24940302  0.74879863     0.82900
N1543       N  0.57294415  0.27698950  0.72945875    -0.77800
C1544       C  0.59835887  0.27504004  0.69963417     0.83000
N1545       N  0.61458511  0.24520159  0.68927769    -0.79500
C1546       C  0.67960113  0.03024563  0.69324991     0.80500
N1547       N  0.66093895  0.01671109  0.66266845    -0.77800
C1548       C  0.63857927  0.03692164  0.63956667     0.82900
N1549       N  0.63596102  0.06982694  0.64710579    -0.77800
C1550       C  0.65480180  0.08337901  0.67692081     0.83000
N1551       N  0.67606547  0.06331176  0.70012426    -0.79500
C1552       C  0.88135724  0.94537479  0.89512963     0.80500
N1553       N  0.88449833  0.91191356  0.89901109    -0.77800
C1554       C  0.90604599  0.89841065  0.92738769     0.82900
N1555       N  0.92383581  0.91866106  0.95261419    -0.77800
C1556       C  0.92124001  0.95209003  0.94968571     0.83000
N1557       N  0.90080172  0.96584114  0.92011159    -0.79500
Zn1558     Zn  0.52855522  0.03985581  0.57073852     1.49700
Zn1559     Zn  0.98054767  0.96998410  0.55579823     1.49400
Zn1560     Zn  0.52459795  0.01165803  0.98905615     1.49100
Zn1561     Zn  0.57981433  0.97437931  0.55430890     1.49500
O1562       O  0.52822742  0.99889019  0.54254909    -1.83900
O1563       O  0.48252280  0.03885813  0.60649503    -0.74500
O1564       O  0.94572365  0.96290455  0.50941542    -0.74300
O1565       O  0.52260438  0.06192858  0.98596032    -0.73800
O1566       O  0.94730725  0.99088126  0.59962694    -0.74500
O1567       O  0.52204777  0.08215163  0.54074785    -0.74100
O1568       O  0.97268949  0.99201795  0.96505224    -0.74700
O1569       O  0.61025303  0.96664746  0.50660069    -0.74100
O1570       O  0.49843177  0.92379128  0.57270072    -0.74900
O1571       O  0.57325335  0.99392391  0.95836097    -0.74200
O1572       O  0.56707052  0.92834445  0.57244301    -0.74700
O1573       O  0.61633965  0.99622293  0.59458205    -0.74600
O1574       O  0.58000634  0.04285017  0.60162201    -0.74400
C1575       C  0.95374765  0.01867184  0.61582367     0.77400
C1576       C  0.94619549  0.97110973  0.97660830     0.77900
C1577       C  0.52088788  0.08709985  0.50607135     0.76800
C1578       C  0.60353703  0.97503405  0.96742014     0.77200
C1579       C  0.53452684  0.91121595  0.57784076     0.78300
C1580       C  0.61080871  0.02435146  0.61014396     0.77400
C1581       C  0.96172482  0.71077115  0.88502911     0.80500
N1582       N  0.48331597  0.71474087  0.85872718    -0.77800
C1583       C  0.49943439  0.74474300  0.85050338     0.82900
N1584       N  0.48744079  0.77152608  0.87061283    -0.77800
C1585       C  0.96634112  0.76809456  0.89704303     0.83000
N1586       N  0.94937200  0.73807573  0.90439820    -0.79500
C1587       C  0.55630433  0.72184595  0.64487439     0.80500
N1588       N  0.55450629  0.72395793  0.68228630    -0.77800
C1589       C  0.55296009  0.75378229  0.69985689     0.82900
N1590       N  0.55386464  0.78197088  0.67958835    -0.77800
C1591       C  0.55563034  0.78059707  0.64215602     0.83000
N1592       N  0.55591059  0.75045030  0.62469798    -0.79500
C1593       C  0.55905315  0.72794773  0.76193134    -0.12000
C1594       C  0.54586350  0.75496613  0.74033129     0.05000
C1595       C  0.52267944  0.78075346  0.75737301    -0.07300
C1596       C  0.51082589  0.77788414  0.79431072    -0.08100
C1597       C  0.52109895  0.74958306  0.81496287    -0.02600
C1598       C  0.05249711  0.72323832  0.79714333     0.04200
N1599       N  0.06359842  0.69354374  0.81631913     0.66700
H1600       H  0.08159224  0.70626869  0.74743371     0.15600
H1601       H  0.49091080  0.79697627  0.80598293     0.15300
N1602       N  0.50756959  0.80866890  0.73702492     0.74400
O1603       O  0.04365102  0.66732240  0.80962084    -0.39000
O1604       O  0.09948211  0.69126335  0.83035658    -0.39000
O1605       O  0.47131034  0.80789763  0.72358400    -0.39700
O1606       O  0.52555037  0.83623613  0.74063538    -0.39700
C1607       C  0.57567096  0.86910717  0.61250404    -0.12000
C1608       C  0.53988315  0.87652230  0.59158291     0.05000
C1609       C  0.51114419  0.85071168  0.58455663    -0.07300
C1610       C  0.51819502  0.81882722  0.59923920    -0.08100
C1611       C  0.55317644  0.81212714  0.62134741    -0.02600
C1612       C  0.58227859  0.83755796  0.62754823     0.04200
N1613       N  0.61898469  0.83176238  0.64900115     0.66700
H1614       H  0.59843294  0.88817744  0.61805690     0.15600
H1615       H  0.49538032  0.79961411  0.59456428     0.15300
N1616       N  0.47489513  0.85613810  0.56241559     0.74400
O1617       O  0.65205140  0.82302975  0.63282271    -0.39000
O1618       O  0.62104566  0.84323340  0.68143971    -0.39000
O1619       O  0.47511261  0.84680180  0.52909815    -0.39700
O1620       O  0.44050930  0.86167656  0.57809861    -0.39700
C1621       C  0.90671782  0.80578189  0.90741862    -0.12000
C1622       C  0.94898415  0.79855467  0.91327457     0.05000
C1623       C  0.97521073  0.82309737  0.92800340    -0.07300
C1624       C  0.95933773  0.85475714  0.93526202    -0.08100
C1625       C  0.91789310  0.86296697  0.92656108    -0.02600
C1626       C  0.89112155  0.83793973  0.91328270     0.04200
N1627       N  0.84856397  0.84488575  0.90447702     0.66700
H1628       H  0.88650072  0.78713326  0.89560397     0.15600
H1629       H  0.98047610  0.87359752  0.94524400     0.15300
N1630       N  0.51224904  0.81529541  0.93826292     0.74400
O1631       O  0.83862200  0.85106729  0.87146166    -0.39000
O1632       O  0.82061393  0.83664969  0.92697792    -0.39000
O1633       O  0.53941089  0.82348791  0.91497756    -0.39700
O1634       O  0.52342136  0.80826902  0.97074221    -0.39700
C1635       C  0.63375908  0.13952951  0.65612440    -0.12000
C1636       C  0.64885459  0.11925872  0.68479767     0.05000
C1637       C  0.65421454  0.13336637  0.72038185    -0.07300
C1638       C  0.64086275  0.16596023  0.72710194    -0.08100
C1639       C  0.62318944  0.18515050  0.69885164    -0.02600
C1640       C  0.62099418  0.17215925  0.66285175     0.04200
N1641       N  0.60242887  0.19061438  0.63347061     0.66700
H1642       H  0.63015461  0.12969623  0.62845500     0.15600
H1643       H  0.64335688  0.17605236  0.75476341     0.15300
N1644       N  0.67110027  0.11479514  0.75049899     0.74400
O1645       O  0.62552862  0.20453196  0.61017348    -0.39000
O1646       O  0.56456685  0.18610226  0.62578858    -0.39000
O1647       O  0.70809181  0.12000089  0.76067172    -0.39700
O1648       O  0.64671626  0.09997701  0.77200246    -0.39700
C1649       C  0.53631403  0.12681894  0.96147363    -0.12000
C1650       C  0.52085871  0.12033859  0.99679323     0.05000
C1651       C  0.50213861  0.14890036  0.51206395    -0.07300
C1652       C  0.50244825  0.18116578  0.49726426    -0.08100
C1653       C  0.52094522  0.18591577  0.96828407    -0.02600
C1654       C  0.53671818  0.15889758  0.94717471     0.04200
N1655       N  0.05102713  0.16317915  0.91146370     0.66700
H1656       H  0.54877763  0.10680562  0.94469514     0.15600
H1657       H  0.48927673  0.20133378  0.51334945     0.15300
N1658       N  0.48283248  0.14407410  0.54708887     0.74400
O1659       O  0.59287012  0.16698763  0.90818525    -0.39000
O1660       O  0.03023557  0.15411209  0.88362160    -0.39000
O1661       O  0.50153430  0.15327001  0.57600751    -0.39700
O1662       O  0.44412162  0.13915715  0.54828819    -0.39700
C1663       C  0.50856980  0.22744844  0.83799537    -0.12000
C1664       C  0.51540531  0.25629004  0.85890472     0.05000
C1665       C  0.02794455  0.28410737  0.84125973    -0.07300
C1666       C  0.54279422  0.28265652  0.80392967    -0.08100
C1667       C  0.54076799  0.25242974  0.78442120    -0.02600
C1668       C  0.52160440  0.22502327  0.80141556     0.04200
N1669       N  0.51623486  0.19404175  0.78270185     0.66700
H1670       H  0.49505186  0.20582672  0.85065072     0.15600
H1671       H  0.05462088  0.30325956  0.79187323     0.15300
N1672       N  0.03514060  0.31450526  0.86069322     0.74400
O1673       O  0.54230700  0.17102022  0.78832347    -0.39000
O1674       O  0.48050135  0.18670292  0.77082649    -0.39000
O1675       O  0.07101164  0.32039813  0.87327574    -0.39700
O1676       O  0.00952325  0.33815411  0.85706043    -0.39700
C1677       C  0.53437258  0.68458222  0.59258400    -0.12000
C1678       C  0.55475241  0.68842090  0.62676525     0.05000
C1679       C  0.57014734  0.65958376  0.64456430    -0.07300
C1680       C  0.56423533  0.62821729  0.62868545    -0.08100
C1681       C  0.54304216  0.62414775  0.59505084    -0.02600
C1682       C  0.52805493  0.65292317  0.57682778     0.04200
N1683       N  0.50373321  0.65053241  0.54383846     0.66700
H1684       H  0.52151387  0.70610476  0.57877601     0.15600
H1685       H  0.57680693  0.60678348  0.64288925     0.15300
N1686       N  0.59266081  0.66141794  0.67860079     0.74400
O1687       O  0.46491437  0.64671937  0.54647168    -0.39000
O1688       O  0.51860929  0.66091375  0.51387048    -0.39000
O1689       O  0.57525706  0.65195476  0.70787905    -0.39700
O1690       O  0.63183694  0.66309960  0.67769914    -0.39700
C1691       C  0.54527531  0.31664671  0.00060217    -0.12000
C1692       C  0.50915440  0.30844403  0.98090430     0.05000
C1693       C  0.97601020  0.33247416  0.97733723    -0.07300
C1694       C  0.98252027  0.36459913  0.99065322    -0.08100
C1695       C  0.52041811  0.37360651  0.00752022    -0.02600
C1696       C  0.55118929  0.34902758  0.01391791     0.04200
N1697       N  0.58837628  0.35635333  0.03399448     0.66700
H1698       H  0.56986073  0.29841912  0.00391718     0.15600
H1699       H  0.95826029  0.38298662  0.98662529     0.15300
N1700       N  0.93758017  0.32501344  0.95921642     0.74400
O1701       O  0.58910405  0.35208395  0.06848470    -0.39000
O1702       O  0.62224332  0.35923343  0.01680373    -0.39000
O1703       O  0.90575100  0.31912680  0.97834858    -0.39700
O1704       O  0.93325598  0.33172129  0.92542464    -0.39700
C1705       C  0.95002826  0.65265850  0.86514914    -0.12000
C1706       C  0.94320280  0.67768048  0.89172468     0.05000
C1707       C  0.92043671  0.66974767  0.92394616    -0.07300
C1708       C  0.90832111  0.63692755  0.93004937    -0.08100
C1709       C  0.91725152  0.61200355  0.90416874    -0.02600
C1710       C  0.93735807  0.62015402  0.87105789     0.04200
N1711       N  0.94835207  0.59527131  0.84449085     0.66700
H1712       H  0.96633404  0.65795002  0.83976496     0.15600
H1713       H  0.89237201  0.63077192  0.95541226     0.15300
N1714       N  0.40340439  0.69408508  0.95272378     0.74400
O1715       O  0.92629384  0.59190267  0.81585563    -0.39000
O1716       O  0.98458093  0.58298891  0.84507814    -0.39000
O1717       O  0.36646097  0.70492000  0.95343804    -0.39700
O1718       O  0.42596295  0.69740358  0.98105874    -0.39700
C1719       C  0.65553627  0.31138954  0.67864400    -0.12000
C1720       C  0.61258347  0.30585527  0.68228022     0.05000
C1721       C  0.58424603  0.33152185  0.67357736    -0.07300
C1722       C  0.59904715  0.36241862  0.66276170    -0.08100
C1723       C  0.64183571  0.36858689  0.66163088    -0.02600
C1724       C  0.67030629  0.34272729  0.66865931     0.04200
N1725       N  0.71411790  0.34838942  0.66661477     0.66700
H1726       H  0.67765316  0.29190402  0.68542534     0.15600
H1727       H  0.57693331  0.38233010  0.65772509     0.15300
N1728       N  0.54037896  0.32710932  0.67710735     0.74400
O1729       O  0.73489599  0.35216163  0.69594053    -0.39000
O1730       O  0.73040326  0.35539220  0.63597481    -0.39000
O1731       O  0.52206500  0.33873801  0.70515407    -0.39700
O1732       O  0.51929574  0.31965671  0.64886201    -0.39700
C1733       C  0.83907310  0.20303301  0.52710444    -0.12000
C1734       C  0.82781162  0.23025257  0.54925568     0.05000
C1735       C  0.80162864  0.25516569  0.53481460    -0.07300
C1736       C  0.78865489  0.25330354  0.49808838    -0.08100
C1737       C  0.82640523  0.22521090  0.97810876    -0.02600
C1738       C  0.85235294  0.20019845  0.99311418     0.04200
N1739       N  0.86991824  0.17460655  0.97044995     0.66700
H1740       H  0.85982109  0.18409636  0.53779748     0.15600
H1741       H  0.76885905  0.27281934  0.48729756     0.15300
N1742       N  0.78780608  0.28246784  0.55706401     0.74400
O1743       O  0.90471272  0.17929938  0.95534904    -0.39000
O1744       O  0.85628074  0.14542708  0.97304090    -0.39000
O1745       O  0.80296502  0.31084551  0.55182980    -0.39700
O1746       O  0.75428680  0.27997032  0.57485648    -0.39700
C1747       C  0.81692115  0.12126024  0.82868043    -0.12000
C1748       C  0.78079541  0.10347734  0.83753290     0.05000
C1749       C  0.74861511  0.11983631  0.85723358    -0.07300
C1750       C  0.75434176  0.15248219  0.86953931    -0.08100
C1751       C  0.79120458  0.16941668  0.86199507    -0.02600
C1752       C  0.82227479  0.15396845  0.84067938     0.04200
N1753       N  0.86028467  0.17053440  0.83250850     0.66700
H1754       H  0.84161009  0.10955105  0.81294262     0.15600
H1755       H  0.73055798  0.16422212  0.88633657     0.15300
N1756       N  0.71103413  0.10332124  0.86695606     0.74400
O1757       O  0.89157308  0.16595194  0.85304059    -0.39000
O1758       O  0.86523575  0.18292336  0.80090355    -0.39000
O1759       O  0.70767230  0.09116786  0.89884750    -0.39700
O1760       O  0.67852224  0.10893078  0.84833377    -0.39700
C1761       C  0.92350953  0.16992167  0.66801585    -0.12000
C1762       C  0.88212777  0.17947098  0.66124153     0.05000
C1763       C  0.84976525  0.15712353  0.66898907    -0.07300
C1764       C  0.85938295  0.12483418  0.68008520    -0.08100
C1765       C  0.90086321  0.11408124  0.68241536    -0.02600
C1766       C  0.93314034  0.13720942  0.67801784     0.04200
N1767       N  0.97576622  0.12754559  0.68206888     0.66700
H1768       H  0.94858892  0.18695829  0.66243775     0.15600
H1769       H  0.83431215  0.10732378  0.68357565     0.15300
N1770       N  0.80707279  0.16613451  0.66358431     0.74400
O1771       O  0.99690828  0.12058514  0.65373226    -0.39000
O1772       O  0.99425869  0.13340360  0.71215970    -0.39000
O1773       O  0.78896144  0.15756676  0.63410761    -0.39700
O1774       O  0.78544945  0.17447392  0.69118840    -0.39700
C1775       C  0.77507202  0.81846354  0.68949013    -0.12000
C1776       C  0.78794980  0.79297788  0.71354229     0.05000
C1777       C  0.79563981  0.80128139  0.75093142    -0.07300
C1778       C  0.79124442  0.83434794  0.76295859    -0.08100
C1779       C  0.78001185  0.85994607  0.73839087    -0.02600
C1780       C  0.77155337  0.85145522  0.70124063     0.04200
N1781       N  0.75990161  0.87586144  0.67456340     0.66700
H1782       H  0.76817060  0.81308119  0.66087428     0.15600
H1783       H  0.79808977  0.84007083  0.79151039     0.15300
N1784       N  0.81004749  0.77712201  0.77681794     0.74400
O1785       O  0.78750015  0.88741205  0.65360435    -0.39000
O1786       O  0.72215084  0.87864771  0.66532852    -0.39000
O1787       O  0.84857360  0.77471529  0.78319650    -0.39700
O1788       O  0.78473062  0.76528901  0.79974678    -0.39700
C1789       C  0.66043293  0.84492815  0.89747515    -0.12000
C1790       C  0.64715207  0.86604658  0.92624529     0.05000
C1791       C  0.63881453  0.85225209  0.96127283    -0.07300
C1792       C  0.64644140  0.81876651  0.96729442    -0.08100
C1793       C  0.66243995  0.79832884  0.93938544    -0.02600
C1794       C  0.66810871  0.81122523  0.90370399     0.04200
N1795       N  0.68446254  0.79130552  0.87431728     0.66700
H1796       H  0.66637131  0.85478830  0.87017666     0.15600
H1797       H  0.64115024  0.80884937  0.99477077     0.15300
N1798       N  0.62498991  0.87194291  0.99180477     0.74400
O1799       O  0.65986555  0.78012282  0.85012453    -0.39000
O1800       O  0.72281544  0.79269493  0.86714824    -0.39000
O1801       O  0.58684367  0.87218820  0.99992450    -0.39700
O1802       O  0.65120905  0.88176024  0.01538779    -0.39700
C1803       C  0.78449896  0.74657898  0.54282028    -0.12000
C1804       C  0.75569713  0.72222573  0.53219326     0.05000
C1805       C  0.74801210  0.69556322  0.55632732    -0.07300
C1806       C  0.76553444  0.69567673  0.59174086    -0.08100
C1807       C  0.79089895  0.72189227  0.60370150    -0.02600
C1808       C  0.80250171  0.74637425  0.57808334     0.04200
N1809       N  0.83302734  0.77077304  0.58703446     0.66700
H1810       H  0.79225645  0.76632792  0.52403645     0.15600
H1811       H  0.75659070  0.67644750  0.61076100     0.15300
N1812       N  0.71951111  0.66978755  0.54694254     0.74400
O1813       O  0.87075965  0.76448075  0.58016156    -0.39000
O1814       O  0.82176917  0.80054989  0.59177508    -0.39000
O1815       O  0.70215231  0.64745178  0.04190264    -0.39700
O1816       O  0.68181051  0.67284634  0.55608307    -0.39700
C1817       C  0.76963283  0.62581689  0.75947198    -0.12000
C1818       C  0.80060076  0.60296973  0.74861680     0.05000
C1819       C  0.83392254  0.61424665  0.72667097    -0.07300
C1820       C  0.83418719  0.64706815  0.71428573    -0.08100
C1821       C  0.80237966  0.66948559  0.72386071    -0.02600
C1822       C  0.77054287  0.65895926  0.74770071     0.04200
N1823       N  0.73763213  0.68087212  0.75858662     0.66700
H1824       H  0.74427320  0.61783779  0.77676657     0.15600
H1825       H  0.85865887  0.65476855  0.69581163     0.15300
N1826       N  0.86637123  0.59236117  0.71452792     0.74400
O1827       O  0.70397108  0.68074261  0.74056829    -0.39000
O1828       O  0.73802796  0.69302084  0.79077239    -0.39000
O1829       O  0.86512500  0.58088676  0.68205310    -0.39700
O1830       O  0.90051772  0.59207563  0.73181538    -0.39700
C1831       C  0.77851052  0.33235940  0.82088348    -0.12000
C1832       C  0.79256537  0.35892111  0.84290364     0.05000
C1833       C  0.80856875  0.35198090  0.87837830    -0.07300
C1834       C  0.81032876  0.31941394  0.89096905    -0.08100
C1835       C  0.79596565  0.29265335  0.86943000    -0.02600
C1836       C  0.77954498  0.29950630  0.83390533     0.04200
N1837       N  0.76221930  0.27398173  0.81118729     0.66700
H1838       H  0.76564829  0.33715044  0.79376885     0.15600
H1839       H  0.82349109  0.31535417  0.91810608     0.15300
N1840       N  0.82421241  0.37753621  0.90204010     0.74400
O1841       O  0.72349898  0.26906398  0.81217685    -0.39000
O1842       O  0.78282908  0.26316050  0.78401500    -0.39000
O1843       O  0.80199003  0.38786240  0.92843883    -0.39700
O1844       O  0.86274405  0.38332460  0.90239517    -0.39700
C1845       C  0.92754237  0.35395094  0.62172525    -0.12000
C1846       C  0.92319593  0.36394322  0.65869883     0.05000
C1847       C  0.91252455  0.33991965  0.68542841    -0.07300
C1848       C  0.90467914  0.30724692  0.67438959    -0.08100
C1849       C  0.90563045  0.29814599  0.63700084    -0.02600
C1850       C  0.91829204  0.32167726  0.61059264     0.04200
N1851       N  0.92080040  0.31378755  0.57213086     0.66700
H1852       H  0.93586784  0.37167093  0.60070244     0.15600
H1853       H  0.89504462  0.28953233  0.69497456     0.15300
N1854       N  0.90757320  0.34826777  0.72359463     0.74400
O1855       O  0.89155165  0.32291024  0.55111089    -0.39000
O1856       O  0.95597134  0.30747780  0.55827781    -0.39000
O1857       O  0.87139988  0.35345227  0.73593711    -0.39700
O1858       O  0.93643018  0.34116699  0.74595708    -0.39700
C1859       C  0.62425289  0.62986954  0.91228687    -0.12000
C1860       C  0.65906544  0.61077711  0.90212753     0.05000
C1861       C  0.69784658  0.62642541  0.89694485    -0.07300
C1862       C  0.70207720  0.65979112  0.90658270    -0.08100
C1863       C  0.66828531  0.67764307  0.92087056    -0.02600
C1864       C  0.62857836  0.66329146  0.92162173     0.04200
N1865       N  0.59341678  0.68108366  0.93576630     0.66700
H1866       H  0.59426261  0.61823633  0.91563975     0.15600
H1867       H  0.73260828  0.67093843  0.90598369     0.15300
N1868       N  0.73435018  0.60816043  0.88659739     0.74400
O1869       O  0.56690423  0.69278725  0.91350914    -0.39000
O1870       O  0.58382141  0.67795345  0.96932276    -0.39000
O1871       O  0.74943731  0.61226801  0.85482670    -0.39700
O1872       O  0.75685429  0.59544552  0.91147861    -0.39700
loop_ 
_geom_bond_atom_site_label_1 
_geom_bond_atom_site_label_2 
_geom_bond_distance 
_geom_bond_site_symmetry_2 
_ccdc_geom_bond_type 
C1            N2   1.356       .  A
C1            N6   1.372       .  A
C1          C127   1.484       .  S
N2            C3   1.351       .  A
C3            N4   1.344       .  A
C3          C456   1.468       .  S
N4            C5   1.352       .  A
C5            N6   1.375       .  A
C5           C32   1.464       .  S
C7            N8   1.368       .  A
C7           N12   1.353       .  A
C7          C124   1.475       .  S
N8            C9   1.373       .  A
C9           N10   1.360       .  A
C9           C34   1.471       .  S
N10          C11   1.351       .  A
C11          N12   1.352       .  A
C11         C442   1.480       .  S
Zn13         O17   1.975       .  S
Zn13         O18   2.046       .  S
Zn13         O22   2.039       .  S
Zn13         O29   2.080       .  S
Zn14         O17   1.968       .  S
Zn14         O19   2.006       .  S
Zn14         O21   2.008       .  S
Zn14         O25   2.044       .  S
Zn15         O17   2.001       .  S
Zn15         O20   2.018       .  S
Zn15         O23   2.068       .  S
Zn15         O26   2.036       .  S
Zn16         O17   1.927       .  S
Zn16         O24   2.005       .  S
Zn16         O27   2.000       .  S
Zn16         O28   1.990       .  S
O18          C30   1.276       .  A
O19          C31   1.276       .  A
O20          C32   1.271       .  A
O21          C30   1.271       .  A
O22          C32   1.280       .  A
O23          C31   1.278       .  A
O24          C33   1.272       .  A
O25          C34   1.273       .  A
O26          C33   1.275       .  A
O27          C34   1.273       .  A
O28          C35   1.271       .  A
O29          C35   1.278       .  A
C30         C414   1.485       .  S
C31         C101   1.475       .  S
C33         C428   1.481       .  S
C35          C95   1.477       .  S
C36          N37   1.357       .  A
C36          N41   1.356       .  A
C36         C389   1.468       .  S
N37         C506   1.355       .  A
C38         N505   1.353       .  A
C38         N507   1.353       .  A
C38         C400   1.480   1_556  S
N39          C40   1.359       .  A
N39         C506   1.354       .  A
C40          N41   1.355       .  A
C40         C459   1.455       .  S
C42          N43   1.357       .  A
C42          N47   1.366       .  A
C42         C417   1.477       .  S
N43          C44   1.354       .  A
C44          N45   1.352       .  A
C44         C403   1.483       .  S
N45          C46   1.360       .  A
C46          N47   1.367       .  A
C46         C372   1.490       .  S
C48          N49   1.359       .  A
C48          N53   1.373       .  A
C48         C174   1.473       .  S
N49          C50   1.349       .  A
C50          N51   1.348       .  A
C50         C386   1.478       .  S
N51          C52   1.353       .  A
C52          N53   1.372       .  A
C52          C80   1.479       .  S
C54          N55   1.369       .  A
C54          N59   1.356       .  A
C54         C171   1.478       .  S
N55          C56   1.374       .  A
C56          N57   1.360       .  A
C56          C77   1.474       .  S
N57          C58   1.352       .  A
C58          N59   1.345       .  A
C58         C361   1.476       .  S
Zn60         O64   1.970   1_545  S
Zn60         O65   2.034       .  S
Zn60         O69   2.073   1_545  S
Zn60         O76   2.015       .  S
Zn61         O64   1.993       .  S
Zn61         O66   2.036       .  S
Zn61         O68   2.042       .  S
Zn61         O72   2.046       .  S
Zn62         O64   1.922       .  S
Zn62         O67   1.986       .  S
Zn62         O70   2.015       .  S
Zn62         O73   1.990       .  S
Zn63         O64   1.985   1_545  S
Zn63         O71   2.072   1_545  S
Zn63         O74   2.019       .  S
Zn63         O75   2.015       .  S
O65          C77   1.278       .  A
O66          C78   1.275       .  A
O67          C79   1.271       .  A
O68          C77   1.274   1_565  A
O69          C79   1.276       .  A
O70          C78   1.273       .  A
O71          C80   1.275       .  A
O72          C81   1.276   1_565  A
O73          C80   1.273       .  A
O74          C81   1.278       .  A
O75          C82   1.271       .  A
O76          C82   1.274       .  A
C78         C375   1.491       .  S
C79         C148   1.476       .  S
C81         C142   1.470       .  S
C82         C344   1.482       .  S
C83          N84   1.363       .  A
C83          N88   1.355       .  A
C83         C431   1.476       .  S
N84          C85   1.363       .  A
C85          N86   1.356       .  A
C85         C347   1.466       .  S
N86          C87   1.352       .  A
C87          N88   1.354       .  A
C87         C333   1.476       .  S
C89          N90   1.361       .  A
C89          N94   1.356       .  A
C89         C445   1.477       .  S
N90          C91   1.360       .  A
C91          N92   1.359       .  A
C91         C358   1.469       .  S
N92          C93   1.356       .  A
C93          N94   1.353       .  A
C93         C330   1.473       .  S
C95          N96   1.360       .  A
C95         N100   1.370       .  A
N96          C97   1.352       .  A
C97          N98   1.349       .  A
C97         C319   1.470       .  S
N98          C99   1.353       .  A
C99         N100   1.370       .  A
C99         C129   1.468       .  S
C101        N102   1.359       .  A
C101        N106   1.373       .  A
N102        C103   1.349       .  A
C103        N104   1.345       .  A
C103        C305   1.467       .  S
N104        C105   1.356       .  A
C105        N106   1.372       .  A
C105        C125   1.477       .  S
Zn107       O111   1.982       .  S
Zn107       O112   2.054   1_455  S
Zn107       O116   2.025       .  S
Zn107       O123   2.030       .  S
Zn108      O1047   1.977       .  S
Zn108       O113   2.082       .  S
Zn108       O115   2.032       .  S
Zn108       O119   1.997       .  S
Zn109       O111   1.924       .  S
Zn109       O114   2.009       .  S
Zn109      O1521   1.969   1_454  S
Zn109       O588   1.990   1_554  S
Zn110       O111   1.990       .  S
Zn110       O121   2.039       .  S
Zn110       O122   2.029       .  S
Zn110       O586   2.097   1_554  S
O111      Zn1044   1.976   1_455  S
O112       C1060   1.275       .  A
O113        C593   1.276   1_554  A
O114        C126   1.271       .  A
O115        C124   1.278       .  A
O116        C126   1.276       .  A
O117      Zn1513   1.975       .  S
O117        C125   1.271       .  A
O118       Zn578   2.094       .  S
O118        C127   1.279       .  A
O119       C1064   1.272       .  A
O120       Zn577   1.998       .  S
O120        C127   1.274       .  A
O121        C128   1.276       .  A
O122        C129   1.278       .  A
O123        C129   1.273       .  A
C124       O1048   1.275       .  A
C125        O581   1.277       .  A
C126        C277   1.480       .  S
C128        C759   1.482       .  S
C128       O1055   1.272   1_455  A
C130        N135   1.369       .  A
C130       N1067   1.357       .  A
C130       C1224   1.479       .  S
N131        C132   1.352       .  A
N131       C1066   1.357       .  A
C132        N133   1.355       .  A
C132        C260   1.480       .  S
N133       C1070   1.355       .  A
C134        N135   1.369       .  A
C134       N1069   1.355       .  A
C134       C1185   1.499       .  S
C136        N137   1.360       .  A
C136        N141   1.361       .  A
C136        C235   1.478       .  S
N137        C138   1.355       .  A
C138        N139   1.356       .  A
C138        C263   1.483       .  S
N139        C140   1.357       .  A
C140        N141   1.360       .  A
C140        C316   1.473       .  S
C142        N143   1.371       .  A
C142        N147   1.360       .  A
N143        C144   1.369       .  A
C144        N145   1.354       .  A
C144        C176   1.474       .  S
N145        C146   1.347       .  A
C146        N147   1.351       .  A
C146        C232   1.478       .  S
C148        N149   1.357       .  A
C148        N153   1.371       .  A
N149        C150   1.350       .  A
C150        N151   1.352       .  A
C150        C221   1.479       .  S
N151        C152   1.356       .  A
C152        N153   1.371       .  A
C152        C172   1.473       .  S
Zn154       O158   1.917   1_545  S
Zn154       O159   1.946   1_455  S
Zn154       O163   2.013       .  S
Zn154       O170   1.966       .  S
Zn155      O1094   1.994       .  S
Zn155       O160   2.038       .  S
Zn155       O162   2.102       .  S
Zn155      O1102   2.052       .  S
Zn156       O626   1.989   1_545  S
Zn156       O161   2.051       .  S
Zn156       O167   2.059   1_545  S
Zn156      O1100   2.041   1_445  S
Zn157       O158   1.971       .  S
Zn157       O165   2.008       .  S
Zn157       O168   2.004       .  S
Zn157       O169   2.076       .  S
O158      Zn1091   1.994   1_455  S
O158       Zn624   1.981   1_564  S
O159       C1107   1.267       .  A
O160        C640   1.280   1_554  A
O161        C641   1.278       .  A
O162        C171   1.279   1_565  A
O163        C173   1.269       .  A
O164      Zn1092   2.042   1_565  S
O164        C172   1.275       .  A
O165        C642   1.276   1_554  A
O166      Zn1091   2.050   1_455  S
O166        C175   1.276       .  A
O167        C174   1.277       .  A
O168        C175   1.273       .  A
O169        C176   1.274   1_565  A
O170        C176   1.269       .  A
C171       O1095   1.267       .  A
C172        O628   1.279       .  A
C173        C714   1.487   1_554  S
C173        O629   1.277   1_554  A
C174        O633   1.276       .  A
C175        C204   1.494       .  S
C177        N182   1.359       .  A
C177       N1114   1.360       .  A
C177        C302   1.488       .  S
N178        C179   1.355   1_655  A
N178       C1113   1.360       .  A
C179        N180   1.356   1_455  A
C179        C193   1.474       .  S
N180       C1117   1.357       .  A
C181        N182   1.358       .  A
C181       N1116   1.357       .  A
C181        C218   1.465       .  S
C183        N184   1.358       .  A
C183        N188   1.364       .  A
C183        C274   1.478       .  S
N184        C185   1.356       .  A
C185        N186   1.354       .  A
C185        C190   1.476       .  S
N186        C187   1.356       .  A
C187        N188   1.361       .  A
C187        C207   1.468       .  S
C189        C190   1.403       .  A
C189       C1130   1.401       .  A
C189       H1132   1.083       .  S
C190        C191   1.413       .  A
C191        C192   1.397       .  A
C191        N198   1.430   1_455  S
C192        C193   1.402       .  A
C192        H197   1.083   1_455  S
C193       C1130   1.410       .  A
C194       C1125   1.402       .  A
C194       C1129   1.411       .  A
C194        N195   1.429       .  S
N195        O199   1.262       .  A
N195        O200   1.262       .  A
H196       C1125   1.082       .  S
N198        O202   1.262       .  A
N198        O201   1.262       .  A
C203        C204   1.411       .  A
C203        C208   1.399       .  A
C203        H210   1.082       .  S
C204        C205   1.417       .  A
C205        C206   1.403       .  A
C205        N212   1.428   1_455  S
C206        C207   1.400       .  A
C206        H211   1.083   1_455  S
C207        C208   1.404       .  A
C208        N209   1.429       .  S
N209        O213   1.262       .  A
N209        O214   1.262       .  A
N212        O216   1.262       .  A
N212        O215   1.262       .  A
C217        C218   1.401       .  A
C217        C222   1.400       .  A
C217        H224   1.082       .  S
C218        C219   1.405       .  A
C219        C220   1.396       .  A
C219       N1162   1.429       .  S
C220        C221   1.407       .  A
C220        H225   1.082       .  S
C221        C222   1.415       .  A
C222        N223   1.430       .  S
N223        O227   1.262       .  A
N223        O228   1.262       .  A
N226       C1155   1.429   1_455  S
N226        O230   1.262       .  A
N226        O229   1.262       .  A
C231        C232   1.406       .  A
C231        C236   1.400       .  A
C231        H238   1.082       .  S
C232        C233   1.409       .  A
C233        C234   1.396       .  A
C233        N240   1.428       .  S
C234        C235   1.405       .  A
C234        H239   1.082       .  S
C235        C236   1.410       .  A
C236        N237   1.429       .  S
N237        O241   1.262       .  A
N237        O242   1.262       .  A
N240        O244   1.262       .  A
N240        O243   1.261       .  A
C245        C246   1.401       .  A
C245        C250   1.401       .  A
C245        H252   1.082       .  S
C246        C641   1.497       .  S
C246        C715   1.419       .  A
C247        C248   1.406       .  A
C247        C714   1.418   1_554  A
C247        N254   1.429   1_455  S
C248        C717   1.405   1_554  A
C248        H253   1.082   1_455  S
C249       C1070   1.500       .  S
C249        C250   1.422       .  A
C249        C716   1.406       .  A
C250       N1187   1.430       .  S
N251       C1186   1.430       .  S
N251       O1191   1.262       .  A
N251        O256   1.262       .  A
N254        O258   1.262       .  A
N254        O257   1.261   1_655  A
O255       N1187   1.262       .  A
C259        C260   1.403       .  A
C259        C264   1.397       .  A
C259        H266   1.082   1_455  S
C260       C1197   1.413       .  A
C261       C1196   1.414       .  A
C261       C1198   1.400       .  A
C261        N268   1.430       .  S
C262        C263   1.406       .  A
C262       C1197   1.399       .  A
C262       H1203   1.082       .  S
C263        C264   1.413       .  A
C264        N265   1.429       .  S
N265        O269   1.262       .  A
N265        O270   1.262   1_455  A
H267       C1198   1.082       .  S
N268        O272   1.262       .  A
N268        O271   1.262       .  A
C273        C274   1.403       .  A
C273        C278   1.403       .  A
C273        H280   1.082       .  S
C274        C275   1.411       .  A
C275        C276   1.398       .  A
C275        N282   1.429       .  S
C276        C277   1.403       .  A
C276        H281   1.083       .  S
C277        C278   1.414       .  A
C278        N279   1.429       .  S
N279        O283   1.262   1_455  A
N279        O284   1.262       .  A
N282        O286   1.262       .  A
N282        O285   1.262       .  A
C287        C288   1.403       .  A
C287        C292   1.408       .  A
C287        H294   1.082       .  S
C288       C1066   1.479       .  S
C288       C1225   1.410   1_455  A
C289        C290   1.401       .  A
C289       C1224   1.409       .  A
C289        N296   1.430       .  S
C290       C1227   1.407       .  A
C290        H295   1.081       .  S
C291        C596   1.496       .  S
C291        C292   1.418       .  A
C291       C1226   1.407   1_455  A
C292        N293   1.428       .  S
N293        O297   1.262       .  A
N293        O298   1.262       .  A
N296        O300   1.262       .  A
N296        O299   1.262       .  A
C301        C302   1.408       .  A
C301        C306   1.394       .  A
C301        H308   1.081       .  S
C302        C303   1.419       .  A
C303        C304   1.401       .  A
C303       N1246   1.429       .  S
C304        C305   1.400       .  A
C304        H309   1.082       .  S
C305        C306   1.405       .  A
C306        N307   1.429       .  S
N307        O311   1.262       .  A
N307        O312   1.262       .  A
N310       C1239   1.429       .  S
N310        O314   1.261       .  A
N310        O313   1.262       .  A
C315        C316   1.408       .  A
C315        C320   1.406       .  A
C315        H322   1.084       .  S
C316        C317   1.408       .  A
C317        C318   1.392       .  A
C317        N324   1.428       .  S
C318        C319   1.400       .  A
C318        H323   1.084       .  S
C319        C320   1.407       .  A
C320        N321   1.430       .  S
N321        O325   1.262       .  A
N321        O326   1.262       .  A
N324        O328   1.261       .  A
N324        O327   1.262       .  A
C329        C330   1.403       .  A
C329        C802   1.401   1_554  A
C329        H336   1.081       .  S
C330        C331   1.409       .  A
C331        C332   1.398       .  A
C331        N338   1.430       .  S
C332        C801   1.405   1_554  A
C332        H337   1.082   1_554  S
C333        C334   1.414       .  A
C333        C800   1.405       .  A
C334        C797   1.397       .  A
C334        N335   1.430       .  S
N335        O339   1.262       .  A
N335        O340   1.262       .  A
N338        O342   1.262       .  A
N338        O341   1.262       .  A
C343        C344   1.407       .  A
C343        C348   1.398       .  A
C343        H350   1.082       .  S
C344        C345   1.416       .  A
C345        C346   1.401       .  A
C345        N352   1.430       .  S
C346        C347   1.401       .  A
C346        H351   1.082       .  S
C347        C348   1.404       .  A
C348        N349   1.428       .  S
N349        O353   1.262       .  A
N349        O354   1.262       .  A
N352        O356   1.262       .  A
N352        O355   1.262       .  A
C357        C358   1.402       .  A
C357        C362   1.403       .  A
C357        H364   1.083       .  S
C358        C359   1.407       .  A
C359        C360   1.396       .  A
C359        N366   1.428       .  S
C360        C361   1.402       .  A
C360        H365   1.083       .  S
C361        C362   1.415       .  A
C362        N363   1.431       .  S
N363        O367   1.262       .  A
N363        O368   1.262       .  A
N366        O370   1.262       .  A
N366        O369   1.262       .  A
C371        C372   1.406       .  A
C371        C376   1.396       .  A
C371        H378   1.081       .  S
C372        C373   1.413       .  A
C373        C374   1.406       .  A
C373        N380   1.428       .  S
C374        C375   1.410       .  A
C374        H379   1.083       .  S
C375        C376   1.412       .  A
C376        N377   1.429       .  S
N377        O381   1.262       .  A
N377        O382   1.262       .  A
N380        O384   1.262       .  A
N380        O383   1.262       .  A
C385        C386   1.406       .  A
C385        C390   1.395       .  A
C385        H392   1.083       .  S
C386        C387   1.413       .  A
C387        C388   1.395       .  A
C387        N394   1.429       .  S
C388        C389   1.402       .  A
C388        H393   1.084       .  S
C389        C390   1.408       .  A
C390        N391   1.429       .  S
N391        O395   1.262       .  A
N391        O396   1.262       .  A
N394        O398   1.262       .  A
N394        O397   1.262       .  A
C399        C400   1.404       .  A
C399        C404   1.400       .  A
C399        H406   1.082       .  S
C400        C401   1.411       .  A
C401        C402   1.398       .  A
C401        N408   1.429       .  S
C402        C403   1.405       .  A
C402        H407   1.081       .  S
C403        C404   1.414       .  A
C404        N405   1.429       .  S
N405        O409   1.262       .  A
N405        O410   1.262       .  A
N408        O412   1.262       .  A
N408        O879   1.262       .  A
O411        N876   1.262       .  A
C413        C414   1.406       .  A
C413        C418   1.405       .  A
C413        H420   1.081       .  S
C414        C415   1.414       .  A
C415        C416   1.400       .  A
C415        N422   1.430       .  S
C416        C417   1.402       .  A
C416        H421   1.082       .  S
C417        C418   1.409       .  A
C418        N419   1.428       .  S
N419        O423   1.262       .  A
N419        O424   1.262       .  A
N422        O426   1.262       .  A
N422        O425   1.262       .  A
C427        C428   1.406       .  A
C427        C432   1.400       .  A
C427        H434   1.082       .  S
C428        C429   1.412       .  A
C429        C430   1.401       .  A
C429        N436   1.430       .  S
C430        C431   1.405       .  A
C430        H435   1.082       .  S
C431        C432   1.407       .  A
C432        N433   1.428       .  S
N433        O437   1.262       .  A
N433        O438   1.262       .  A
N436        O440   1.262       .  A
N436        O439   1.262       .  A
C441        C442   1.403       .  A
C441        C446   1.391       .  A
C441        H448   1.082       .  S
C442        C443   1.414       .  A
C443        C444   1.403       .  A
C443        N450   1.429       .  S
C444        C445   1.404       .  A
C444        H449   1.082       .  S
C445        C446   1.412       .  A
C446        N447   1.429       .  S
N447        O451   1.261       .  A
N447        O452   1.261       .  A
N450        O454   1.262       .  A
N450        O453   1.262       .  A
C455        C456   1.402       .  A
C455        C460   1.395       .  A
C455        H462   1.083       .  S
C456        C457   1.415       .  A
C457        C458   1.393       .  A
C457        N464   1.430       .  S
C458        C459   1.396       .  A
C458        H463   1.083       .  S
C459        C460   1.406       .  A
C460        N461   1.428       .  S
N461        O465   1.262       .  A
N461        O466   1.262       .  A
N464        O468   1.262       .  A
N464        O467   1.262       .  A
C469        N470   1.358       .  A
C469        N474   1.372       .  A
C469        C595   1.484       .  S
N470        C471   1.351       .  A
C471        N472   1.343       .  A
C471        C924   1.466       .  S
N472        C473   1.353       .  A
C473        N474   1.374       .  A
C473        C500   1.463       .  S
C475        N476   1.366       .  A
C475        N480   1.356       .  A
C475        C592   1.471       .  S
N476        C477   1.369       .  A
C477        N478   1.355       .  A
C477        C502   1.463       .  S
N478        C479   1.348       .  A
C479        N480   1.353       .  A
C479        C910   1.479       .  S
Zn481       O485   1.965       .  S
Zn481       O486   2.037       .  S
Zn481       O490   2.023       .  S
Zn481       O497   2.077       .  S
Zn482       O485   1.969       .  S
Zn482       O487   2.011       .  S
Zn482       O489   2.008       .  S
Zn482       O493   2.031       .  S
Zn483       O485   1.986       .  S
Zn483       O488   2.021       .  S
Zn483       O491   2.033       .  S
Zn483       O494   1.994       .  S
Zn484       O485   1.931       .  S
Zn484       O492   2.029       .  S
Zn484       O495   1.992       .  S
Zn484       O496   2.008       .  S
O486        C498   1.276       .  A
O487        C499   1.276       .  A
O488        C500   1.271       .  A
O489        C498   1.270       .  A
O490        C500   1.279       .  A
O491        C499   1.272       .  A
O492        C501   1.274       .  A
O493        C502   1.272       .  A
O494        C501   1.271       .  A
O495        C502   1.273       .  A
O496        C503   1.274       .  A
O497        C503   1.277       .  A
C498        C882   1.484       .  S
C499        C569   1.466       .  S
C501        C896   1.482       .  S
C503        C563   1.480       .  S
C504        N505   1.358       .  A
C504        N509   1.357       .  A
C504        C857   1.465       .  S
C506        C868   1.479       .  S
N507        C508   1.359       .  A
C508        N509   1.357       .  A
C508        C927   1.456       .  S
C510        N511   1.356       .  A
C510        N515   1.366       .  A
C510        C885   1.476       .  S
N511        C512   1.351       .  A
C512        N513   1.353       .  A
C512        C871   1.478       .  S
N513        C514   1.361       .  A
C514        N515   1.368       .  A
C514        C840   1.491       .  S
C516        N517   1.353       .  A
C516        N521   1.369       .  A
C516        C642   1.465       .  S
N517        C518   1.347       .  A
C518        N519   1.349       .  A
C518        C854   1.479       .  S
N519        C520   1.356       .  A
C520        N521   1.370       .  A
C520        C548   1.470       .  S
C522        N523   1.369       .  A
C522        N527   1.359       .  A
C522        C639   1.476       .  S
N523        C524   1.370       .  A
C524        N525   1.357       .  A
C524        C545   1.468       .  S
N525        C526   1.349       .  A
C526        N527   1.349       .  A
C526        C829   1.470       .  S
Zn528       O532   1.962   1_545  S
Zn528       O533   2.014       .  S
Zn528       O537   2.068   1_545  S
Zn528       O544   2.000       .  S
Zn529       O532   1.994       .  S
Zn529       O534   2.037       .  S
Zn529       O536   2.045       .  S
Zn529       O540   2.039       .  S
Zn530       O532   1.919       .  S
Zn530       O535   1.997       .  S
Zn530       O538   2.010       .  S
Zn530       O541   1.985       .  S
Zn531       O532   1.982   1_545  S
Zn531       O539   2.053   1_545  S
Zn531       O542   2.010       .  S
Zn531       O543   2.017       .  S
O533        C545   1.276       .  A
O534        C546   1.276       .  A
O535        C547   1.272       .  A
O536        C545   1.275   1_565  A
O537        C547   1.275       .  A
O538        C546   1.273       .  A
O539        C548   1.274       .  A
O540        C549   1.274   1_565  A
O541        C548   1.272       .  A
O542        C549   1.276       .  A
O543        C550   1.271       .  A
O544        C550   1.272       .  A
C546        C843   1.489       .  S
C547        C616   1.477       .  S
C549        C610   1.467       .  S
C550        C812   1.480       .  S
C551        N552   1.361       .  A
C551        N556   1.358       .  A
C551        C899   1.491       .  S
N552        C553   1.363       .  A
C553        N554   1.358       .  A
C553        C815   1.461       .  S
N554        C555   1.352       .  A
C555        N556   1.352       .  A
C555        C801   1.479       .  S
C557        N558   1.361       .  A
C557        N562   1.356       .  A
C557        C913   1.474       .  S
N558        C559   1.358       .  A
C559        N560   1.355       .  A
C559        C826   1.470       .  S
N560        C561   1.354       .  A
C561        N562   1.354       .  A
C561        C798   1.469       .  S
C563        N564   1.358       .  A
C563        N568   1.373       .  A
N564        C565   1.351       .  A
C565        N566   1.346       .  A
C565        C787   1.464       .  S
N566        C567   1.352       .  A
C567        N568   1.372       .  A
C567        C597   1.468       .  S
C569        N570   1.354       .  A
C569        N574   1.372       .  A
N570        C571   1.345       .  A
C571        N572   1.347       .  A
C571        C773   1.462       .  S
N572        C573   1.357       .  A
C573        N574   1.372       .  A
C573        C593   1.475       .  S
Zn575       O579   1.985       .  S
Zn575       O580   2.045   1_455  S
Zn575       O584   2.033       .  S
Zn575       O591   2.029       .  S
Zn576      O1515   1.981       .  S
Zn576       O581   2.081       .  S
Zn576       O583   2.025       .  S
Zn576       O587   2.016       .  S
Zn577       O579   1.935       .  S
Zn577       O582   2.045       .  S
Zn577      O1053   1.976   1_455  S
Zn578       O579   1.993       .  S
Zn578       O589   2.059       .  S
Zn578       O590   2.035       .  S
O579      Zn1512   1.979   1_455  S
O580       C1528   1.275       .  A
O582        C594   1.274       .  A
O583        C592   1.277       .  A
O584        C594   1.276       .  A
O585      Zn1045   1.972   1_556  S
O585        C593   1.270       .  A
O586        C595   1.279       .  A
O587       C1532   1.273       .  A
O588        C595   1.272       .  A
O589        C596   1.276       .  A
O590        C597   1.279       .  A
O591        C597   1.273       .  A
C592       O1516   1.275       .  A
C594        C745   1.494       .  S
C596       O1523   1.273   1_455  A
C598       N1535   1.357       .  A
C598        N603   1.364       .  A
C598       C1692   1.467       .  S
N599       C1534   1.357       .  A
N599        C600   1.352       .  A
C600        N601   1.354       .  A
C600        C728   1.479       .  S
N601       C1538   1.353       .  A
C602       N1537   1.353       .  A
C602        N603   1.364       .  A
C602       C1653   1.489       .  S
C604        N605   1.357       .  A
C604        N609   1.359       .  A
C604        C703   1.468       .  S
N605        C606   1.355       .  A
C606        N607   1.356       .  A
C606        C731   1.481       .  S
N607        C608   1.357       .  A
C608        N609   1.359       .  A
C608        C784   1.473       .  S
C610        N611   1.370       .  A
C610        N615   1.358       .  A
N611        C612   1.368       .  A
C612        N613   1.355       .  A
C612        C644   1.477       .  S
N613        C614   1.351       .  A
C614        N615   1.350       .  A
C614        C700   1.484       .  S
C616        N617   1.359       .  A
C616        N621   1.372       .  A
N617        C618   1.351       .  A
C618        N619   1.349       .  A
C618        C689   1.475       .  S
N619        C620   1.353       .  A
C620        N621   1.371       .  A
C620        C640   1.473       .  S
Zn622       O626   1.934   1_545  S
Zn622       O627   1.966   1_455  S
Zn622       O631   2.030       .  S
Zn622       O638   1.990       .  S
Zn623      O1562   1.996       .  S
Zn623       O628   2.041       .  S
Zn623       O630   2.088       .  S
Zn623      O1570   2.063       .  S
Zn624       O629   2.029       .  S
Zn624      O1568   2.043   1_445  S
Zn624       O635   2.042   1_545  S
Zn625       O626   1.969       .  S
Zn625       O633   2.011       .  S
Zn625       O636   2.014       .  S
Zn625       O637   2.070       .  S
O626      Zn1559   1.996   1_455  S
O627       C1575   1.269       .  A
O630        C639   1.280   1_565  A
O631        C641   1.272       .  A
O632      Zn1560   2.041   1_565  S
O632        C640   1.275       .  A
O634      Zn1559   2.062       .  S
O634        C643   1.276   1_655  A
O635        C642   1.274       .  A
O636        C643   1.273       .  A
O637        C644   1.275   1_565  A
O638        C644   1.272       .  A
C639       O1563   1.270       .  A
C643        C672   1.494       .  S
C645       N1582   1.362       .  A
C645        N650   1.359       .  A
C645        C770   1.485       .  S
N646       C1581   1.362       .  A
N646        C647   1.354   1_655  A
C647        N648   1.354   1_455  A
C647        C661   1.482       .  S
N648       C1585   1.355       .  A
C649       N1584   1.355       .  A
C649        N650   1.359       .  A
C649        C686   1.463       .  S
C651        N652   1.357       .  A
C651        N656   1.368       .  A
C651        C742   1.496       .  S
N652        C653   1.357       .  A
C653        N654   1.355       .  A
C653        C658   1.485       .  S
N654        C655   1.357       .  A
C655        N656   1.367       .  A
C655        C675   1.481       .  S
C657        C658   1.405       .  A
C657       C1598   1.399       .  A
C657       H1600   1.080       .  S
C658        C659   1.415       .  A
C659        C660   1.398       .  A
C659        N666   1.429       .  S
C660        C661   1.405       .  A
C660        H665   1.082       .  S
C661       C1598   1.412       .  A
C662       C1593   1.401       .  A
C662       C1597   1.411       .  A
C662        N663   1.429       .  S
N663        O667   1.262       .  A
N663        O668   1.262       .  A
H664       C1593   1.081       .  S
N666        O670   1.262       .  A
N666        O669   1.262   1_455  A
C671        C672   1.406       .  A
C671        C676   1.398       .  A
C671        H678   1.082       .  S
C672        C673   1.418       .  A
C673        C674   1.410       .  A
C673        N680   1.429   1_455  S
C674        C675   1.404       .  A
C674        H679   1.082   1_455  S
C675        C676   1.409       .  A
C676        N677   1.429       .  S
N677        O681   1.262       .  A
N677        O682   1.262       .  A
N680        O684   1.262       .  A
N680        O683   1.262       .  A
C685        C686   1.402       .  A
C685        C690   1.401       .  A
C685        H692   1.083       .  S
C686        C687   1.405       .  A
C687        C688   1.394       .  A
C687       N1630   1.430       .  S
C688        C689   1.406       .  A
C688        H693   1.082       .  S
C689        C690   1.412       .  A
C690        N691   1.430       .  S
N691        O695   1.262       .  A
N691        O696   1.262       .  A
N694       C1623   1.430   1_455  S
N694        O698   1.262       .  A
N694        O697   1.262       .  A
C699        C700   1.408       .  A
C699        C704   1.395       .  A
C699        H706   1.082       .  S
C700        C701   1.417       .  A
C701        C702   1.399       .  A
C701        N708   1.429       .  S
C702        C703   1.401       .  A
C702        H707   1.082       .  S
C703        C704   1.404       .  A
C704        N705   1.428       .  S
N705        O709   1.262       .  A
N705        O710   1.261       .  A
N708        O712   1.262       .  A
N708        O711   1.262       .  A
C713        C714   1.400       .  A
C713        C718   1.394       .  A
C713        H720   1.082       .  S
C715        C716   1.410       .  A
C715        N722   1.428   1_455  S
C716        H721   1.082   1_455  S
C717       C1538   1.489       .  S
C717        C718   1.418       .  A
C718       N1655   1.430       .  S
N719       C1654   1.429       .  S
N719       O1659   1.262       .  A
N719        O724   1.262       .  A
N722        O726   1.262       .  A
N722        O725   1.261   1_655  A
O723       N1655   1.262       .  A
C727        C728   1.403       .  A
C727        C732   1.394       .  A
C727        H734   1.081   1_455  S
C728       C1665   1.414       .  A
C729       C1664   1.414       .  A
C729       C1666   1.400       .  A
C729        N736   1.429       .  S
C730       C1665   1.399       .  A
C730        C731   1.406       .  A
C730       H1671   1.082       .  S
C731        C732   1.412       .  A
C732        N733   1.429       .  S
N733        O737   1.262       .  A
N733        O738   1.262   1_455  A
H735       C1666   1.082       .  S
N736        O740   1.262       .  A
N736        O739   1.262       .  A
C741        C742   1.407       .  A
C741        C746   1.410       .  A
C741        H748   1.082       .  S
C742        C743   1.418       .  A
C743        C744   1.400       .  A
C743        N750   1.429       .  S
C744        C745   1.402       .  A
C744        H749   1.083       .  S
C745        C746   1.416       .  A
C746        N747   1.428       .  S
N747        O751   1.262   1_455  A
N747        O752   1.261       .  A
N750        O754   1.262       .  A
N750        O753   1.262       .  A
C755        C756   1.402       .  A
C755        C760   1.403   1_556  A
C755        H762   1.082   1_556  S
C756       C1534   1.467       .  S
C756       C1693   1.407   1_455  A
C757       C1692   1.407       .  A
C757        C758   1.396       .  A
C757        N764   1.430       .  S
C758       C1695   1.405   1_556  A
C758        H763   1.082       .  S
C759       C1694   1.406   1_454  A
C759        C760   1.414       .  A
C760        N761   1.429       .  S
N761        O765   1.262       .  A
N761        O766   1.262       .  A
N764        O768   1.262       .  A
N764        O767   1.262       .  A
C769        C770   1.407       .  A
C769        C774   1.390       .  A
C769        H776   1.083       .  S
C770        C771   1.419       .  A
C771        C772   1.401       .  A
C771       N1714   1.429       .  S
C772        C773   1.399       .  A
C772        H777   1.084       .  S
C773        C774   1.405       .  A
C774        N775   1.429       .  S
N775        O779   1.262       .  A
N775        O780   1.262       .  A
N778       C1707   1.428       .  S
N778        O782   1.262       .  A
N778        O781   1.262       .  A
C783        C784   1.407       .  A
C783        C788   1.402       .  A
C783        H790   1.084       .  S
C784        C785   1.410       .  A
C785        C786   1.394       .  A
C785        N792   1.428       .  S
C786        C787   1.399       .  A
C786        H791   1.084       .  S
C787        C788   1.404       .  A
C788        N789   1.430       .  S
N789        O793   1.262       .  A
N789        O794   1.262       .  A
N792        O796   1.261       .  A
N792        O795   1.262       .  A
C797        C798   1.402       .  A
C797        H804   1.082       .  S
C798        C799   1.408       .  A
C799        C800   1.396       .  A
C799        N806   1.429       .  S
C800        H805   1.082       .  S
C801        C802   1.413       .  A
C802        N803   1.429       .  S
N803        O807   1.262       .  A
N803        O808   1.262       .  A
N806        O810   1.262       .  A
N806        O809   1.261       .  A
C811        C812   1.407       .  A
C811        C816   1.396       .  A
C811        H818   1.082       .  S
C812        C813   1.415       .  A
C813        C814   1.400       .  A
C813        N820   1.429       .  S
C814        C815   1.400       .  A
C814        H819   1.083       .  S
C815        C816   1.403       .  A
C816        N817   1.429       .  S
N817        O821   1.262       .  A
N817        O822   1.262       .  A
N820        O824   1.262       .  A
N820        O823   1.262       .  A
C825        C826   1.403       .  A
C825        C830   1.401       .  A
C825        H832   1.082       .  S
C826        C827   1.410       .  A
C827        C828   1.396       .  A
C827        N834   1.430       .  S
C828        C829   1.401       .  A
C828        H833   1.083       .  S
C829        C830   1.410       .  A
C830        N831   1.429       .  S
N831        O835   1.262       .  A
N831        O836   1.262       .  A
N834        O838   1.262       .  A
N834        O837   1.262       .  A
C839        C840   1.409       .  A
C839        C844   1.398       .  A
C839        H846   1.081       .  S
C840        C841   1.413       .  A
C841        C842   1.405       .  A
C841        N848   1.429       .  S
C842        C843   1.409       .  A
C842        H847   1.080       .  S
C843        C844   1.411       .  A
C844        N845   1.429       .  S
N845        O849   1.262       .  A
N845        O850   1.262       .  A
N848        O852   1.262       .  A
N848        O851   1.262       .  A
C853        C854   1.407       .  A
C853        C858   1.398       .  A
C853        H860   1.085       .  S
C854        C855   1.415       .  A
C855        C856   1.390       .  A
C855        N862   1.427       .  S
C856        C857   1.398       .  A
C856        H861   1.088       .  S
C857        C858   1.408       .  A
C858        N859   1.429       .  S
N859        O863   1.262       .  A
N859        O864   1.262       .  A
N862        O866   1.262   1_556  A
N862        O865   1.261       .  A
C867        C868   1.405       .  A
C867        C872   1.399       .  A
C867        H874   1.080       .  S
C868        C869   1.413       .  A
C869        C870   1.399       .  A
C869        N876   1.429       .  S
C870        C871   1.404       .  A
C870        H875   1.080       .  S
C871        C872   1.409       .  A
C872        N873   1.429       .  S
N873        O877   1.262       .  A
N873        O878   1.262       .  A
N876        O880   1.262       .  A
C881        C882   1.407       .  A
C881        C886   1.404       .  A
C881        H888   1.081       .  S
C882        C883   1.413       .  A
C883        C884   1.398       .  A
C883        N890   1.429       .  S
C884        C885   1.402       .  A
C884        H889   1.082       .  S
C885        C886   1.410       .  A
C886        N887   1.428       .  S
N887        O891   1.262       .  A
N887        O892   1.262       .  A
N890        O894   1.262       .  A
N890        O893   1.262       .  A
C895        C896   1.406       .  A
C895        C900   1.406       .  A
C895        H902   1.082       .  S
C896        C897   1.411       .  A
C897        C898   1.391       .  A
C897        N904   1.430       .  S
C898        C899   1.407       .  A
C898        H903   1.081       .  S
C899        C900   1.417       .  A
C900        N901   1.429       .  S
N901        O905   1.262       .  A
N901        O906   1.262       .  A
N904        O908   1.262       .  A
N904        O907   1.262       .  A
C909        C910   1.403       .  A
C909        C914   1.394       .  A
C909        H916   1.082       .  S
C910        C911   1.416       .  A
C911        C912   1.398       .  A
C911        N918   1.430       .  S
C912        C913   1.402       .  A
C912        H917   1.082       .  S
C913        C914   1.412       .  A
C914        N915   1.429       .  S
N915        O919   1.261       .  A
N915        O920   1.262       .  A
N918        O922   1.262       .  A
N918        O921   1.262       .  A
C923        C924   1.402       .  A
C923        C928   1.396       .  A
C923        H930   1.082       .  S
C924        C925   1.414       .  A
C925        C926   1.394       .  A
C925        N932   1.430       .  S
C926        C927   1.398       .  A
C926        H931   1.082       .  S
C927        C928   1.406       .  A
C928        N929   1.429       .  S
N929        O933   1.262       .  A
N929        O934   1.262       .  A
N932        O936   1.262       .  A
N932        O935   1.262       .  A
C937        N938   1.357       .  A
C937        N942   1.373       .  A
C937       C1063   1.485       .  S
N938        C939   1.351       .  A
C939        N940   1.344       .  A
C939       C1392   1.469       .  S
N940        C941   1.352       .  A
C941        N942   1.375       .  A
C941        C968   1.465       .  S
C943        N944   1.368       .  A
C943        N948   1.354       .  A
C943       C1060   1.475       .  S
N944        C945   1.372       .  A
C945        N946   1.359       .  A
C945        C970   1.471       .  S
N946        C947   1.350       .  A
C947        N948   1.352       .  A
C947       C1378   1.481       .  S
Zn949       O953   1.973       .  S
Zn949       O954   2.041       .  S
Zn949       O958   2.036       .  S
Zn949       O965   2.077       .  S
Zn950       O953   1.969       .  S
Zn950       O955   2.002       .  S
Zn950       O957   2.009       .  S
Zn950       O961   2.044       .  S
Zn951       O953   2.001       .  S
Zn951       O956   2.021       .  S
Zn951       O959   2.068       .  S
Zn951       O962   2.037       .  S
Zn952       O953   1.926       .  S
Zn952       O960   2.004       .  S
Zn952       O963   1.996       .  S
Zn952       O964   1.990       .  S
O954        C966   1.276       .  A
O955        C967   1.275       .  A
O956        C968   1.272       .  A
O957        C966   1.271       .  A
O958        C968   1.280       .  A
O959        C967   1.278       .  A
O960        C969   1.272       .  A
O961        C970   1.273       .  A
O962        C969   1.275       .  A
O963        C970   1.272       .  A
O964        C971   1.271       .  A
O965        C971   1.278       .  A
C966       C1350   1.485       .  S
C967       C1037   1.474       .  S
C969       C1364   1.481       .  S
C971       C1031   1.476       .  S
C972        N973   1.357       .  A
C972        N977   1.356       .  A
C972       C1325   1.471       .  S
N973       C1442   1.354       .  A
C974       N1441   1.351       .  A
C974       N1443   1.354       .  A
C974       C1336   1.478   1_556  S
N975       C1442   1.355       .  A
N975        C976   1.360       .  A
C976        N977   1.355       .  A
C976       C1395   1.457       .  S
C978        N979   1.356       .  A
C978        N983   1.365       .  A
C978       C1353   1.473       .  S
N979        C980   1.354       .  A
C980        N981   1.353       .  A
C980       C1339   1.481       .  S
N981        C982   1.360       .  A
C982        N983   1.366       .  A
C982       C1308   1.486       .  S
C984        N985   1.357       .  A
C984        N989   1.373       .  A
C984       C1110   1.471       .  S
N985        C986   1.348       .  A
C986        N987   1.348       .  A
C986       C1322   1.473       .  S
N987        C988   1.354       .  A
C988        N989   1.372       .  A
C988       C1016   1.478       .  S
C990        N991   1.370       .  A
C990        N995   1.357       .  A
C990       C1107   1.480       .  S
N991        C992   1.374       .  A
C992        N993   1.359       .  A
C992       C1013   1.475       .  S
N993        C994   1.352       .  A
C994        N995   1.346       .  A
C994       C1297   1.476       .  S
Zn996      O1000   1.968   1_545  S
Zn996      O1001   2.031       .  S
Zn996      O1005   2.068   1_545  S
Zn996      O1012   2.007       .  S
Zn997      O1000   1.992       .  S
Zn997      O1002   2.036       .  S
Zn997      O1004   2.046       .  S
Zn997      O1008   2.048       .  S
Zn998      O1000   1.919       .  S
Zn998      O1003   1.983       .  S
Zn998      O1006   2.011       .  S
Zn998      O1009   1.992       .  S
Zn999      O1000   1.984   1_545  S
Zn999      O1007   2.070   1_545  S
Zn999      O1010   2.015       .  S
Zn999      O1011   2.010       .  S
O1001      C1013   1.277       .  A
O1002      C1014   1.276       .  A
O1003      C1015   1.271       .  A
O1004      C1013   1.274   1_565  A
O1005      C1015   1.275       .  A
O1006      C1014   1.273       .  A
O1007      C1016   1.274       .  A
O1008      C1017   1.277   1_565  A
O1009      C1016   1.272       .  A
O1010      C1017   1.277       .  A
O1011      C1018   1.270       .  A
O1012      C1018   1.274       .  A
C1014      C1311   1.489       .  S
C1015      C1084   1.473       .  S
C1017      C1078   1.469       .  S
C1018      C1280   1.479       .  S
C1019      N1020   1.362       .  A
C1019      N1024   1.354       .  A
C1019      C1367   1.474       .  S
N1020      C1021   1.363       .  A
C1021      N1022   1.355       .  A
C1021      C1283   1.463       .  S
N1022      C1023   1.352       .  A
C1023      N1024   1.354       .  A
C1023      C1269   1.472       .  S
C1025      N1026   1.362       .  A
C1025      N1030   1.356       .  A
C1025      C1381   1.478       .  S
N1026      C1027   1.361       .  A
C1027      N1028   1.359       .  A
C1027      C1294   1.470       .  S
N1028      C1029   1.356       .  A
C1029      N1030   1.353       .  A
C1029      C1266   1.474       .  S
C1031      N1032   1.360       .  A
C1031      N1036   1.370       .  A
N1032      C1033   1.352       .  A
C1033      N1034   1.349       .  A
C1033      C1255   1.471       .  S
N1034      C1035   1.353       .  A
C1035      N1036   1.369       .  A
C1035      C1065   1.468       .  S
C1037      N1038   1.359       .  A
C1037      N1042   1.373       .  A
N1038      C1039   1.349       .  A
C1039      N1040   1.348       .  A
C1039      C1241   1.473       .  S
N1040      C1041   1.357       .  A
C1041      N1042   1.371       .  A
C1041      C1061   1.479       .  S
Zn1043     O1047   1.982       .  S
Zn1043     O1048   2.053       .  S
Zn1043     O1052   2.023       .  S
Zn1043     O1059   2.032       .  S
Zn1044     O1049   2.083   1_554  S
Zn1044     O1051   2.031       .  S
Zn1044     O1055   1.995       .  S
Zn1045     O1047   1.925       .  S
Zn1045     O1050   2.015       .  S
Zn1045     O1524   1.995   1_554  S
Zn1046     O1047   1.990       .  S
Zn1046     O1522   2.097   1_554  S
Zn1046     O1057   2.033       .  S
Zn1046     O1058   2.025       .  S
O1049      C1529   1.276       .  A
O1050      C1062   1.271       .  A
O1051      C1060   1.277       .  A
O1052      C1062   1.276       .  A
O1053      C1061   1.271       .  A
O1054     Zn1514   2.095       .  S
O1054      C1063   1.280       .  A
O1056     Zn1513   2.000       .  S
O1056      C1063   1.274       .  A
O1057      C1064   1.275       .  A
O1058      C1065   1.277       .  A
O1059      C1065   1.273       .  A
C1061      O1517   1.277       .  A
C1062      C1213   1.480       .  S
C1064      C1695   1.480       .  S
C1066      N1071   1.369       .  A
N1067      C1068   1.353       .  A
C1068      N1069   1.356       .  A
C1068      C1196   1.480       .  S
C1070      N1071   1.370       .  A
C1072      N1073   1.359       .  A
C1072      N1077   1.362       .  A
C1072      C1171   1.477       .  S
N1073      C1074   1.354       .  A
C1074      N1075   1.355       .  A
C1074      C1199   1.483       .  S
N1075      C1076   1.357       .  A
C1076      N1077   1.360       .  A
C1076      C1252   1.474       .  S
C1078      N1079   1.371       .  A
C1078      N1083   1.360       .  A
N1079      C1080   1.369       .  A
C1080      N1081   1.354       .  A
C1080      C1112   1.474       .  S
N1081      C1082   1.347       .  A
C1082      N1083   1.351       .  A
C1082      C1168   1.480       .  S
C1084      N1085   1.356       .  A
C1084      N1089   1.370       .  A
N1085      C1086   1.348       .  A
C1086      N1087   1.352       .  A
C1086      C1157   1.479       .  S
N1087      C1088   1.356       .  A
C1088      N1089   1.371       .  A
C1088      C1108   1.471       .  S
Zn1090     O1094   1.915   1_545  S
Zn1090     O1095   1.944       .  S
Zn1090     O1099   2.014       .  S
Zn1090     O1106   1.963       .  S
Zn1091     O1096   2.044       .  S
Zn1091     O1098   2.107       .  S
Zn1092     O1562   1.990   1_545  S
Zn1092     O1097   2.049       .  S
Zn1092     O1103   2.056   1_545  S
Zn1093     O1094   1.971       .  S
Zn1093     O1101   2.013       .  S
Zn1093     O1104   2.010       .  S
Zn1093     O1105   2.077       .  S
O1094     Zn1560   1.983   1_564  S
O1096      C1576   1.281   1_554  A
O1097      C1577   1.278       .  A
O1098      C1107   1.280   1_565  A
O1099      C1109   1.269       .  A
O1100      C1108   1.275       .  A
O1101      C1578   1.277   1_554  A
O1102      C1111   1.276       .  A
O1103      C1110   1.276       .  A
O1104      C1111   1.274       .  A
O1105      C1112   1.275   1_565  A
O1106      C1112   1.269       .  A
C1108      O1564   1.279       .  A
C1109      C1650   1.487   1_554  S
C1109      O1565   1.276   1_554  A
C1110      O1569   1.276       .  A
C1111      C1140   1.496       .  S
C1113      N1118   1.359       .  A
C1113      C1238   1.484       .  S
N1114      C1115   1.354       .  A
C1115      N1116   1.356       .  A
C1115      C1129   1.474       .  S
C1117      N1118   1.358       .  A
C1117      C1154   1.464       .  S
C1119      N1120   1.359       .  A
C1119      N1124   1.364       .  A
C1119      C1210   1.479       .  S
N1120      C1121   1.356       .  A
C1121      N1122   1.355       .  A
C1121      C1126   1.476       .  S
N1122      C1123   1.356       .  A
C1123      N1124   1.361       .  A
C1123      C1143   1.470       .  S
C1125      C1126   1.403       .  A
C1126      C1127   1.412       .  A
C1127      C1128   1.397       .  A
C1127      N1134   1.430       .  S
C1128      C1129   1.402       .  A
C1128      H1133   1.083       .  S
C1130      N1131   1.428       .  S
N1131      O1135   1.262       .  A
N1131      O1136   1.262       .  A
N1134      O1138   1.261       .  A
N1134      O1137   1.262       .  A
C1139      C1140   1.411       .  A
C1139      C1144   1.400       .  A
C1139      H1146   1.081       .  S
C1140      C1141   1.418       .  A
C1141      C1142   1.403       .  A
C1141      N1148   1.428       .  S
C1142      C1143   1.400       .  A
C1142      H1147   1.083       .  S
C1143      C1144   1.405       .  A
C1144      N1145   1.429       .  S
N1145      O1149   1.262       .  A
N1145      O1150   1.262       .  A
N1148      O1152   1.262       .  A
N1148      O1151   1.262       .  A
C1153      C1154   1.400       .  A
C1153      C1158   1.399       .  A
C1153      H1160   1.082       .  S
C1154      C1155   1.404       .  A
C1155      C1156   1.396       .  A
C1156      C1157   1.407       .  A
C1156      H1161   1.082       .  S
C1157      C1158   1.416       .  A
C1158      N1159   1.430       .  S
N1159      O1163   1.262       .  A
N1159      O1164   1.262       .  A
N1162      O1166   1.262       .  A
N1162      O1165   1.262       .  A
C1167      C1168   1.407       .  A
C1167      C1172   1.399       .  A
C1167      H1174   1.082       .  S
C1168      C1169   1.411       .  A
C1169      C1170   1.398       .  A
C1169      N1176   1.428       .  S
C1170      C1171   1.405       .  A
C1170      H1175   1.082       .  S
C1171      C1172   1.409       .  A
C1172      N1173   1.428       .  S
N1173      O1177   1.262       .  A
N1173      O1178   1.261       .  A
N1176      O1180   1.262       .  A
N1176      O1179   1.262       .  A
C1181      C1182   1.402       .  A
C1181      C1186   1.402       .  A
C1181      H1188   1.082       .  S
C1182      C1577   1.497       .  S
C1182      C1651   1.418       .  A
C1183      C1650   1.417   1_554  A
C1183      C1184   1.406       .  A
C1183      N1190   1.429       .  S
C1184      C1653   1.405   1_554  A
C1184      H1189   1.082       .  S
C1185      C1652   1.405       .  A
C1185      C1186   1.422       .  A
N1187      O1192   1.262       .  A
N1190      O1194   1.262       .  A
N1190      O1193   1.261       .  A
C1195      C1196   1.403       .  A
C1195      C1200   1.396       .  A
C1195      H1202   1.082       .  S
C1197      N1204   1.430       .  S
C1198      C1199   1.407       .  A
C1199      C1200   1.412       .  A
C1200      N1201   1.429       .  S
N1201      O1205   1.262       .  A
N1201      O1206   1.262       .  A
N1204      O1208   1.262       .  A
N1204      O1207   1.262       .  A
C1209      C1210   1.404       .  A
C1209      C1214   1.404       .  A
C1209      H1216   1.082       .  S
C1210      C1211   1.411       .  A
C1211      C1212   1.397       .  A
C1211      N1218   1.429       .  S
C1212      C1213   1.402       .  A
C1212      H1217   1.083       .  S
C1213      C1214   1.414       .  A
C1214      N1215   1.429       .  S
N1215      O1219   1.262       .  A
N1215      O1220   1.262       .  A
N1218      O1222   1.262       .  A
N1218      O1221   1.262       .  A
C1223      C1224   1.402       .  A
C1223      C1228   1.408       .  A
C1223      H1230   1.082       .  S
C1225      C1226   1.400       .  A
C1225      N1232   1.430       .  S
C1226      H1231   1.081       .  S
C1227      C1532   1.495       .  S
C1227      C1228   1.417       .  A
C1228      N1229   1.428       .  S
N1229      O1233   1.262       .  A
N1229      O1234   1.262       .  A
N1232      O1236   1.262       .  A
N1232      O1235   1.262       .  A
C1237      C1238   1.407       .  A
C1237      C1242   1.396       .  A
C1237      H1244   1.082       .  S
C1238      C1239   1.415       .  A
C1239      C1240   1.400       .  A
C1240      C1241   1.402       .  A
C1240      H1245   1.082       .  S
C1241      C1242   1.408       .  A
C1242      N1243   1.429       .  S
N1243      O1247   1.262       .  A
N1243      O1248   1.262       .  A
N1246      O1250   1.262       .  A
N1246      O1249   1.262       .  A
C1251      C1252   1.408       .  A
C1251      C1256   1.407       .  A
C1251      H1258   1.084       .  S
C1252      C1253   1.408       .  A
C1253      C1254   1.392       .  A
C1253      N1260   1.427       .  S
C1254      C1255   1.400       .  A
C1254      H1259   1.084       .  S
C1255      C1256   1.408       .  A
C1256      N1257   1.430       .  S
N1257      O1261   1.262       .  A
N1257      O1262   1.262       .  A
N1260      O1264   1.261       .  A
N1260      O1263   1.262       .  A
C1265      C1266   1.403       .  A
C1265      C1738   1.401   1_554  A
C1265      H1272   1.081       .  S
C1266      C1267   1.409       .  A
C1267      C1268   1.397       .  A
C1267      N1274   1.430       .  S
C1268      C1737   1.405   1_554  A
C1268      H1273   1.082   1_554  S
C1269      C1736   1.403       .  A
C1269      C1270   1.413       .  A
C1270      C1733   1.397       .  A
C1270      N1271   1.430       .  S
N1271      O1275   1.262       .  A
N1271      O1276   1.262       .  A
N1274      O1278   1.262       .  A
N1274      O1277   1.261       .  A
C1279      C1280   1.406       .  A
C1279      C1284   1.396       .  A
C1279      H1286   1.082       .  S
C1280      C1281   1.415       .  A
C1281      C1282   1.401       .  A
C1281      N1288   1.430       .  S
C1282      C1283   1.402       .  A
C1282      H1287   1.082       .  S
C1283      C1284   1.403       .  A
C1284      N1285   1.428       .  S
N1285      O1289   1.262       .  A
N1285      O1290   1.262       .  A
N1288      O1292   1.262       .  A
N1288      O1291   1.262       .  A
C1293      C1294   1.402       .  A
C1293      C1298   1.403       .  A
C1293      H1300   1.083       .  S
C1294      C1295   1.408       .  A
C1295      C1296   1.396       .  A
C1295      N1302   1.428       .  S
C1296      C1297   1.402       .  A
C1296      H1301   1.083       .  S
C1297      C1298   1.415       .  A
C1298      N1299   1.431       .  S
N1299      O1303   1.262   1_655  A
N1299      O1304   1.262   1_655  A
N1302      O1306   1.262       .  A
N1302      O1305   1.262       .  A
C1307      C1308   1.405       .  A
C1307      C1312   1.397       .  A
C1307      H1314   1.081       .  S
C1308      C1309   1.412       .  A
C1309      C1310   1.405       .  A
C1309      N1316   1.428       .  S
C1310      C1311   1.410       .  A
C1310      H1315   1.082       .  S
C1311      C1312   1.412       .  A
C1312      N1313   1.429       .  S
N1313      O1317   1.262       .  A
N1313      O1318   1.262       .  A
N1316      O1320   1.262       .  A
N1316      O1319   1.262       .  A
C1321      C1322   1.403       .  A
C1321      C1326   1.395       .  A
C1321      H1328   1.084       .  S
C1322      C1323   1.411       .  A
C1323      C1324   1.394       .  A
C1323      N1330   1.429       .  S
C1324      C1325   1.403       .  A
C1324      H1329   1.085       .  S
C1325      C1326   1.410       .  A
C1326      N1327   1.428       .  S
N1327      O1331   1.262       .  A
N1327      O1332   1.262       .  A
N1330      O1334   1.262       .  A
N1330      O1333   1.262       .  A
C1335      C1336   1.404       .  A
C1335      C1340   1.399       .  A
C1335      H1342   1.082       .  S
C1336      C1337   1.410       .  A
C1337      C1338   1.398       .  A
C1337      N1344   1.429       .  S
C1338      C1339   1.405       .  A
C1338      H1343   1.080       .  S
C1339      C1340   1.413       .  A
C1340      N1341   1.429       .  S
N1341      O1345   1.262       .  A
N1341      O1346   1.262       .  A
N1344      O1348   1.262       .  A
N1344      O1815   1.262       .  A
O1347      N1812   1.262       .  A
C1349      C1350   1.407       .  A
C1349      C1354   1.404       .  A
C1349      H1356   1.081       .  S
C1350      C1351   1.415       .  A
C1351      C1352   1.400       .  A
C1351      N1358   1.430       .  S
C1352      C1353   1.401       .  A
C1352      H1357   1.082       .  S
C1353      C1354   1.408       .  A
C1354      N1355   1.428       .  S
N1355      O1359   1.262       .  A
N1355      O1360   1.262       .  A
N1358      O1362   1.262       .  A
N1358      O1361   1.262       .  A
C1363      C1364   1.406       .  A
C1363      C1368   1.400       .  A
C1363      H1370   1.081       .  S
C1364      C1365   1.412       .  A
C1365      C1366   1.401       .  A
C1365      N1372   1.430       .  S
C1366      C1367   1.405       .  A
C1366      H1371   1.082       .  S
C1367      C1368   1.407       .  A
C1368      N1369   1.428       .  S
N1369      O1373   1.262       .  A
N1369      O1374   1.262       .  A
N1372      O1376   1.262       .  A
N1372      O1375   1.262       .  A
C1377      C1378   1.402       .  A
C1377      C1382   1.391       .  A
C1377      H1384   1.082       .  S
C1378      C1379   1.415       .  A
C1379      C1380   1.403       .  A
C1379      N1386   1.429       .  S
C1380      C1381   1.404       .  A
C1380      H1385   1.082       .  S
C1381      C1382   1.412       .  A
C1382      N1383   1.429       .  S
N1383      O1387   1.261       .  A
N1383      O1388   1.261       .  A
N1386      O1390   1.262       .  A
N1386      O1389   1.262       .  A
C1391      C1392   1.402       .  A
C1391      C1396   1.395       .  A
C1391      H1398   1.083       .  S
C1392      C1393   1.415       .  A
C1393      C1394   1.394       .  A
C1393      N1400   1.430       .  S
C1394      C1395   1.396       .  A
C1394      H1399   1.083       .  S
C1395      C1396   1.406       .  A
C1396      N1397   1.428       .  S
N1397      O1401   1.262       .  A
N1397      O1402   1.262       .  A
N1400      O1404   1.262       .  A
N1400      O1403   1.262       .  A
C1405      N1406   1.356       .  A
C1405      N1410   1.373       .  A
C1405      C1531   1.485       .  S
N1406      C1407   1.350       .  A
C1407      N1408   1.343       .  A
C1407      C1860   1.467       .  S
N1408      C1409   1.353       .  A
C1409      N1410   1.375       .  A
C1409      C1436   1.466       .  S
C1411      N1412   1.366       .  A
C1411      N1416   1.356       .  A
C1411      C1528   1.472       .  S
N1412      C1413   1.369       .  A
C1413      N1414   1.355       .  A
C1413      C1438   1.463       .  S
N1414      C1415   1.347       .  A
C1415      N1416   1.354       .  A
C1415      C1846   1.480       .  S
Zn1417     O1421   1.966       .  S
Zn1417     O1422   2.040       .  S
Zn1417     O1426   2.025       .  S
Zn1417     O1433   2.078       .  S
Zn1418     O1421   1.970       .  S
Zn1418     O1423   2.007       .  S
Zn1418     O1425   2.007       .  S
Zn1418     O1429   2.030       .  S
Zn1419     O1421   1.989       .  S
Zn1419     O1424   2.028       .  S
Zn1419     O1427   2.039       .  S
Zn1419     O1430   2.005       .  S
Zn1420     O1421   1.929       .  S
Zn1420     O1428   2.029       .  S
Zn1420     O1431   1.989       .  S
Zn1420     O1432   2.003       .  S
O1422      C1434   1.276       .  A
O1423      C1435   1.275       .  A
O1424      C1436   1.272       .  A
O1425      C1434   1.270       .  A
O1426      C1436   1.279       .  A
O1427      C1435   1.273       .  A
O1428      C1437   1.274       .  A
O1429      C1438   1.271       .  A
O1430      C1437   1.272       .  A
O1431      C1438   1.272       .  A
O1432      C1439   1.274       .  A
O1433      C1439   1.277       .  A
C1434      C1818   1.484       .  S
C1435      C1505   1.466       .  S
C1437      C1832   1.486       .  S
C1439      C1499   1.480       .  S
C1440      N1441   1.356       .  A
C1440      N1445   1.356       .  A
C1440      C1793   1.463       .  S
C1442      C1804   1.480       .  S
N1443      C1444   1.360       .  A
C1444      N1445   1.356       .  A
C1444      C1863   1.455       .  S
C1446      N1447   1.356       .  A
C1446      N1451   1.366       .  A
C1446      C1821   1.477       .  S
N1447      C1448   1.351       .  A
C1448      N1449   1.353       .  A
C1448      C1807   1.480       .  S
N1449      C1450   1.362       .  A
C1450      N1451   1.368       .  A
C1450      C1776   1.495       .  S
C1452      N1453   1.352       .  A
C1452      N1457   1.370       .  A
C1452      C1578   1.466       .  S
N1453      C1454   1.346       .  A
C1454      N1455   1.349       .  A
C1454      C1790   1.477       .  S
N1455      C1456   1.356       .  A
C1456      N1457   1.371       .  A
C1456      C1484   1.471       .  S
C1458      N1459   1.369       .  A
C1458      N1463   1.359       .  A
C1458      C1575   1.475       .  S
N1459      C1460   1.370       .  A
C1460      N1461   1.357       .  A
C1460      C1481   1.467       .  S
N1461      C1462   1.349       .  A
C1462      N1463   1.349       .  A
C1462      C1765   1.469       .  S
Zn1464     O1468   1.964   1_545  S
Zn1464     O1469   2.017       .  S
Zn1464     O1473   2.071   1_545  S
Zn1464     O1480   2.004       .  S
Zn1465     O1468   1.994       .  S
Zn1465     O1470   2.033       .  S
Zn1465     O1472   2.039       .  S
Zn1465     O1476   2.042       .  S
Zn1466     O1468   1.923       .  S
Zn1466     O1471   2.005       .  S
Zn1466     O1474   2.019       .  S
Zn1466     O1477   1.991       .  S
Zn1467     O1468   1.981   1_545  S
Zn1467     O1475   2.052   1_545  S
Zn1467     O1478   2.011       .  S
Zn1467     O1479   2.016       .  S
O1469      C1481   1.276       .  A
O1470      C1482   1.275       .  A
O1471      C1483   1.273       .  A
O1472      C1481   1.274   1_565  A
O1473      C1483   1.276       .  A
O1474      C1482   1.274       .  A
O1475      C1484   1.274       .  A
O1476      C1485   1.274   1_565  A
O1477      C1484   1.273       .  A
O1478      C1485   1.276       .  A
O1479      C1486   1.271       .  A
O1480      C1486   1.272       .  A
C1482      C1779   1.492       .  S
C1483      C1552   1.480       .  S
C1485      C1546   1.468       .  S
C1486      C1748   1.481       .  S
C1487      N1488   1.362       .  A
C1487      N1492   1.358       .  A
C1487      C1835   1.493       .  S
N1488      C1489   1.364       .  A
C1489      N1490   1.358       .  A
C1489      C1751   1.463       .  S
N1490      C1491   1.352       .  A
C1491      N1492   1.352       .  A
C1491      C1737   1.480       .  S
C1493      N1494   1.361       .  A
C1493      N1498   1.355       .  A
C1493      C1849   1.474       .  S
N1494      C1495   1.359       .  A
C1495      N1496   1.356       .  A
C1495      C1762   1.470       .  S
N1496      C1497   1.353       .  A
C1497      N1498   1.353       .  A
C1497      C1734   1.465       .  S
C1499      N1500   1.357       .  A
C1499      N1504   1.373       .  A
N1500      C1501   1.350       .  A
C1501      N1502   1.346       .  A
C1501      C1723   1.465       .  S
N1502      C1503   1.353       .  A
C1503      N1504   1.373       .  A
C1503      C1533   1.469       .  S
C1505      N1506   1.355       .  A
C1505      N1510   1.372       .  A
N1506      C1507   1.345       .  A
C1507      N1508   1.347       .  A
C1507      C1709   1.464       .  S
N1508      C1509   1.357       .  A
C1509      N1510   1.371       .  A
C1509      C1529   1.476       .  S
Zn1511     O1515   1.985       .  S
Zn1511     O1516   2.045       .  S
Zn1511     O1520   2.035       .  S
Zn1511     O1527   2.032       .  S
Zn1512     O1517   2.084       .  S
Zn1512     O1519   2.029       .  S
Zn1512     O1523   2.014       .  S
Zn1513     O1515   1.936       .  S
Zn1513     O1518   2.050       .  S
Zn1514     O1515   1.992       .  S
Zn1514     O1525   2.059       .  S
Zn1514     O1526   2.034       .  S
O1518      C1530   1.274       .  A
O1519      C1528   1.278       .  A
O1520      C1530   1.277       .  A
O1521      C1529   1.270       .  A
O1522      C1531   1.278       .  A
O1524      C1531   1.273       .  A
O1525      C1532   1.276       .  A
O1526      C1533   1.279       .  A
O1527      C1533   1.273       .  A
C1530      C1681   1.496       .  S
C1534      N1539   1.364       .  A
N1535      C1536   1.352       .  A
C1536      N1537   1.354       .  A
C1536      C1664   1.480       .  S
C1538      N1539   1.364       .  A
C1540      N1541   1.356       .  A
C1540      N1545   1.358       .  A
C1540      C1639   1.467       .  S
N1541      C1542   1.354       .  A
C1542      N1543   1.357       .  A
C1542      C1667   1.481       .  S
N1543      C1544   1.358       .  A
C1544      N1545   1.358       .  A
C1544      C1720   1.471       .  S
C1546      N1547   1.370       .  A
C1546      N1551   1.358       .  A
N1547      C1548   1.369       .  A
C1548      N1549   1.354       .  A
C1548      C1580   1.478       .  S
N1549      C1550   1.351       .  A
C1550      N1551   1.350       .  A
C1550      C1636   1.483       .  S
C1552      N1553   1.359       .  A
C1552      N1557   1.373       .  A
N1553      C1554   1.352       .  A
C1554      N1555   1.350       .  A
C1554      C1625   1.475       .  S
N1555      C1556   1.353       .  A
C1556      N1557   1.372       .  A
C1556      C1576   1.476       .  S
Zn1558     O1562   1.936   1_545  S
Zn1558     O1563   1.969       .  S
Zn1558     O1567   2.034       .  S
Zn1558     O1574   1.997       .  S
Zn1559     O1564   2.036       .  S
Zn1559     O1566   2.086       .  S
Zn1560     O1565   2.030       .  S
Zn1560     O1571   2.044   1_545  S
Zn1561     O1562   1.970       .  S
Zn1561     O1569   2.010       .  S
Zn1561     O1572   2.016       .  S
Zn1561     O1573   2.067       .  S
O1566      C1575   1.279   1_565  A
O1567      C1577   1.273       .  A
O1568      C1576   1.275       .  A
O1570      C1579   1.276       .  A
O1571      C1578   1.274       .  A
O1572      C1579   1.273       .  A
O1573      C1580   1.275   1_565  A
O1574      C1580   1.273       .  A
C1579      C1608   1.495       .  S
C1581      N1586   1.359       .  A
C1581      C1706   1.485       .  S
N1582      C1583   1.353       .  A
C1583      N1584   1.353       .  A
C1583      C1597   1.479       .  S
C1585      N1586   1.358       .  A
C1585      C1622   1.465       .  S
C1587      N1588   1.358       .  A
C1587      N1592   1.368       .  A
C1587      C1678   1.496       .  S
N1588      C1589   1.357       .  A
C1589      N1590   1.356       .  A
C1589      C1594   1.484       .  S
N1590      C1591   1.358       .  A
C1591      N1592   1.366       .  A
C1591      C1611   1.482       .  S
C1593      C1594   1.406       .  A
C1594      C1595   1.414       .  A
C1595      C1596   1.397       .  A
C1595      N1602   1.429       .  S
C1596      C1597   1.404       .  A
C1596      H1601   1.082       .  S
C1598      N1599   1.429       .  S
N1599      O1603   1.262       .  A
N1599      O1604   1.262       .  A
N1602      O1606   1.262       .  A
N1602      O1605   1.262       .  A
C1607      C1608   1.406       .  A
C1607      C1612   1.400       .  A
C1607      H1614   1.082       .  S
C1608      C1609   1.417       .  A
C1609      C1610   1.409       .  A
C1609      N1616   1.428       .  S
C1610      C1611   1.404       .  A
C1610      H1615   1.082       .  S
C1611      C1612   1.409       .  A
C1612      N1613   1.429       .  S
N1613      O1617   1.262       .  A
N1613      O1618   1.262       .  A
N1616      O1620   1.262       .  A
N1616      O1619   1.262       .  A
C1621      C1622   1.403       .  A
C1621      C1626   1.401       .  A
C1621      H1628   1.083       .  S
C1622      C1623   1.406       .  A
C1623      C1624   1.394       .  A
C1624      C1625   1.405       .  A
C1624      H1629   1.082       .  S
C1625      C1626   1.412       .  A
C1626      N1627   1.429       .  S
N1627      O1631   1.262       .  A
N1627      O1632   1.262       .  A
N1630      O1634   1.262       .  A
N1630      O1633   1.262       .  A
C1635      C1636   1.407       .  A
C1635      C1640   1.395       .  A
C1635      H1642   1.082       .  S
C1636      C1637   1.416       .  A
C1637      C1638   1.399       .  A
C1637      N1644   1.429       .  S
C1638      C1639   1.402       .  A
C1638      H1643   1.082       .  S
C1639      C1640   1.404       .  A
C1640      N1641   1.428       .  S
N1641      O1645   1.262       .  A
N1641      O1646   1.262       .  A
N1644      O1648   1.262       .  A
N1644      O1647   1.262       .  A
C1649      C1650   1.400       .  A
C1649      C1654   1.395       .  A
C1649      H1656   1.082       .  S
C1651      C1652   1.409       .  A
C1651      N1658   1.428       .  S
C1652      H1657   1.082       .  S
C1653      C1654   1.418       .  A
N1655      O1660   1.262       .  A
N1658      O1662   1.262       .  A
N1658      O1661   1.261       .  A
C1663      C1664   1.402       .  A
C1663      C1668   1.393       .  A
C1663      H1670   1.081       .  S
C1665      N1672   1.429       .  S
C1666      C1667   1.407       .  A
C1667      C1668   1.413       .  A
C1668      N1669   1.429       .  S
N1669      O1673   1.262       .  A
N1669      O1674   1.262       .  A
N1672      O1676   1.262       .  A
N1672      O1675   1.262       .  A
C1677      C1678   1.407       .  A
C1677      C1682   1.410       .  A
C1677      H1684   1.082       .  S
C1678      C1679   1.417       .  A
C1679      C1680   1.400       .  A
C1679      N1686   1.429       .  S
C1680      C1681   1.403       .  A
C1680      H1685   1.082       .  S
C1681      C1682   1.417       .  A
C1682      N1683   1.429       .  S
N1683      O1687   1.262       .  A
N1683      O1688   1.262       .  A
N1686      O1690   1.262       .  A
N1686      O1689   1.262       .  A
C1691      C1692   1.401   1_554  A
C1691      C1696   1.403       .  A
C1691      H1698   1.082       .  S
C1693      C1694   1.396       .  A
C1693      N1700   1.430       .  S
C1694      H1699   1.082       .  S
C1695      C1696   1.414       .  A
C1696      N1697   1.429       .  S
N1697      O1701   1.262       .  A
N1697      O1702   1.262       .  A
N1700      O1704   1.261       .  A
N1700      O1703   1.262       .  A
C1705      C1706   1.407       .  A
C1705      C1710   1.392       .  A
C1705      H1712   1.082       .  S
C1706      C1707   1.418       .  A
C1707      C1708   1.400       .  A
C1708      C1709   1.399       .  A
C1708      H1713   1.084       .  S
C1709      C1710   1.405       .  A
C1710      N1711   1.429       .  S
N1711      O1715   1.262       .  A
N1711      O1716   1.262       .  A
N1714      O1718   1.262       .  A
N1714      O1717   1.262       .  A
C1719      C1720   1.407       .  A
C1719      C1724   1.402       .  A
C1719      H1726   1.084       .  S
C1720      C1721   1.409       .  A
C1721      C1722   1.394       .  A
C1721      N1728   1.428       .  S
C1722      C1723   1.400       .  A
C1722      H1727   1.084       .  S
C1723      C1724   1.405       .  A
C1724      N1725   1.430       .  S
N1725      O1729   1.262       .  A
N1725      O1730   1.262       .  A
N1728      O1732   1.261       .  A
N1728      O1731   1.262       .  A
C1733      C1734   1.401       .  A
C1733      H1740   1.082       .  S
C1734      C1735   1.407       .  A
C1735      C1736   1.394       .  A
C1735      N1742   1.429       .  S
C1736      H1741   1.082       .  S
C1737      C1738   1.413       .  A
C1738      N1739   1.429       .  S
N1739      O1743   1.262       .  A
N1739      O1744   1.262       .  A
N1742      O1746   1.262       .  A
N1742      O1745   1.261       .  A
C1747      C1748   1.407       .  A
C1747      C1752   1.397       .  A
C1747      H1754   1.082       .  S
C1748      C1749   1.415       .  A
C1749      C1750   1.400       .  A
C1749      N1756   1.429       .  S
C1750      C1751   1.400       .  A
C1750      H1755   1.083       .  S
C1751      C1752   1.404       .  A
C1752      N1753   1.429       .  S
N1753      O1757   1.262       .  A
N1753      O1758   1.262       .  A
N1756      O1760   1.262       .  A
N1756      O1759   1.262       .  A
C1761      C1762   1.403       .  A
C1761      C1766   1.401       .  A
C1761      H1768   1.083       .  S
C1762      C1763   1.410       .  A
C1763      C1764   1.396       .  A
C1763      N1770   1.430       .  S
C1764      C1765   1.401       .  A
C1764      H1769   1.083       .  S
C1765      C1766   1.409       .  A
C1766      N1767   1.429       .  S
N1767      O1771   1.262       .  A
N1767      O1772   1.262       .  A
N1770      O1774   1.262       .  A
N1770      O1773   1.262       .  A
C1775      C1776   1.409       .  A
C1775      C1780   1.398       .  A
C1775      H1782   1.080       .  S
C1776      C1777   1.414       .  A
C1777      C1778   1.406       .  A
C1777      N1784   1.429       .  S
C1778      C1779   1.410       .  A
C1778      H1783   1.080       .  S
C1779      C1780   1.412       .  A
C1780      N1781   1.429       .  S
N1781      O1785   1.262       .  A
N1781      O1786   1.262       .  A
N1784      O1788   1.262       .  A
N1784      O1787   1.262       .  A
C1789      C1790   1.407       .  A
C1789      C1794   1.398       .  A
C1789      H1796   1.085       .  S
C1790      C1791   1.414       .  A
C1791      C1792   1.388       .  A
C1791      N1798   1.428       .  S
C1792      C1793   1.397       .  A
C1792      H1797   1.088       .  S
C1793      C1794   1.408       .  A
C1794      N1795   1.429       .  S
N1795      O1799   1.262       .  A
N1795      O1800   1.262       .  A
N1798      O1802   1.262   1_556  A
N1798      O1801   1.261       .  A
C1803      C1804   1.405       .  A
C1803      C1808   1.400       .  A
C1803      H1810   1.080       .  S
C1804      C1805   1.412       .  A
C1805      C1806   1.399       .  A
C1805      N1812   1.429       .  S
C1806      C1807   1.405       .  A
C1806      H1811   1.080       .  S
C1807      C1808   1.410       .  A
C1808      N1809   1.429       .  S
N1809      O1813   1.262       .  A
N1809      O1814   1.262       .  A
N1812      O1816   1.262       .  A
C1817      C1818   1.406       .  A
C1817      C1822   1.404       .  A
C1817      H1824   1.081       .  S
C1818      C1819   1.414       .  A
C1819      C1820   1.399       .  A
C1819      N1826   1.430       .  S
C1820      C1821   1.402       .  A
C1820      H1825   1.082       .  S
C1821      C1822   1.410       .  A
C1822      N1823   1.428       .  S
N1823      O1827   1.262       .  A
N1823      O1828   1.262       .  A
N1826      O1830   1.262       .  A
N1826      O1829   1.262       .  A
C1831      C1832   1.408       .  A
C1831      C1836   1.407       .  A
C1831      H1838   1.082       .  S
C1832      C1833   1.411       .  A
C1833      C1834   1.392       .  A
C1833      N1840   1.429       .  S
C1834      C1835   1.407       .  A
C1834      H1839   1.081       .  S
C1835      C1836   1.417       .  A
C1836      N1837   1.429       .  S
N1837      O1841   1.262       .  A
N1837      O1842   1.262       .  A
N1840      O1844   1.262       .  A
N1840      O1843   1.262       .  A
C1845      C1846   1.403       .  A
C1845      C1850   1.393       .  A
C1845      H1852   1.082       .  S
C1846      C1847   1.417       .  A
C1847      C1848   1.398       .  A
C1847      N1854   1.430       .  S
C1848      C1849   1.401       .  A
C1848      H1853   1.082       .  S
C1849      C1850   1.413       .  A
C1850      N1851   1.429       .  S
N1851      O1855   1.262       .  A
N1851      O1856   1.262       .  A
N1854      O1858   1.262       .  A
N1854      O1857   1.262       .  A
C1859      C1860   1.402       .  A
C1859      C1864   1.395       .  A
C1859      H1866   1.082       .  S
C1860      C1861   1.414       .  A
C1861      C1862   1.395       .  A
C1861      N1868   1.430       .  S
C1862      C1863   1.397       .  A
C1862      H1867   1.082       .  S
C1863      C1864   1.405       .  A
C1864      N1865   1.429       .  S
N1865      O1869   1.262       .  A
N1865      O1870   1.262       .  A
N1868      O1872   1.262       .  A
N1868      O1871   1.262       .  A
