geometry optimzed in LAMMPS
_audit_creation_date              2020-11-30 
_audit_creation_method            'lammps2cif' 
_symmetry_space_group_name_H-M    'P1' 
_symmetry_Int_Tables_number       1 
_symmetry_cell_setting            triclinic 
loop_ 
_symmetry_equiv_pos_as_xyz 
  x,y,z 
_cell_length_a                    34.28976722 
_cell_length_b                    33.65519315866299 
_cell_length_c                    43.106219374996556 
_cell_angle_alpha                 89.91882555597543 
_cell_angle_beta                  89.41153063378755 
_cell_angle_gamma                 89.82724637012397 
loop_ 
_atom_site_label 
_atom_site_type_symbol 
_atom_site_fract_x 
_atom_site_fract_y 
_atom_site_fract_z 
_atom_site_charge 
O1          O  0.09485357  0.29235165  0.03467908    -0.72100
O2          O  0.08500382  0.21189872  0.46668347    -0.73100
O3          O  0.08429147  0.21160704  0.03398956    -0.61700
O4          O  0.09382241  0.29283188  0.46773936    -0.70100
O5          O  0.15797565  0.28412828  0.46512096    -0.69700
O6          O  0.14863489  0.20323628  0.03415354    -0.60900
O7          O  0.14908899  0.20257913  0.46665867    -0.73500
O8          O  0.15911421  0.28450098  0.03296937    -0.72200
Cu9        Cu  0.08739670  0.25238827  0.50077708     1.04600
Cu10       Cu  0.15597464  0.24333231  0.99970102     1.04300
C11         C  0.12845751  0.29793386  0.04645324     0.94100
C12         C  0.11597662  0.19780251  0.45398258     0.93200
C13         C  0.11504719  0.19836849  0.04678117     0.85400
C14         C  0.12635851  0.29793551  0.45373462     0.91600
O15         O  0.03173245  0.04013876  0.46424295    -0.72100
O16         O  0.03799390  0.45675414  0.03062226    -0.73100
O17         O  0.03007530  0.45791038  0.46378357    -0.61700
O18         O  0.04029617  0.03842254  0.03161119    -0.70100
O19         O  0.22580802  0.04064245  0.03666448    -0.69700
O20         O  0.21556981  0.46008893  0.46850054    -0.60900
O21         O  0.22350940  0.45813118  0.03558604    -0.73500
O22         O  0.21729535  0.04163768  0.46952885    -0.72200
Cu23       Cu  0.03719203  0.99828998  0.49736248     1.04600
Cu24       Cu  0.21835426  0.00019127  0.50282429     1.04300
C25         C  0.99821692  0.05077213  0.45438167     0.94100
C26         C  0.00689784  0.44710011  0.04535363     0.93200
C27         C  0.99626869  0.44937925  0.45359978     0.85400
C28         C  0.00976657  0.04927585  0.04660483     0.91600
C29         C  0.03875429  0.12497446  0.25043459     0.30800
C30         C  0.20901703  0.12567119  0.24919282     0.30800
C31         C  0.01821489  0.10422088  0.27785327    -0.05400
C32         C  0.01927158  0.16634908  0.25013267    -0.06200
C33         C  0.02019177  0.10434125  0.22260035    -0.06000
C34         C  0.22772113  0.10472033  0.27731592    -0.05400
C35         C  0.22878891  0.16678558  0.24951813    -0.06200
C36         C  0.22968001  0.10493102  0.22146009    -0.06000
C37         C  0.21498253  0.09115580  0.30586101    -0.31400
N38         N  0.99634759  0.08360289  0.32403295     0.15100
C39         C  0.02897068  0.08994264  0.30650777    -0.31400
H40         H  0.05852791  0.08704668  0.31470647     0.17000
C41         C  0.21725960  0.20624191  0.24920122    -0.30400
N42         N  0.99971433  0.22955448  0.24962529     0.13800
C43         C  0.03158768  0.20540999  0.25019224    -0.30400
C44         C  0.21995415  0.09134619  0.19221573    -0.30700
N45         N  0.00333732  0.08321336  0.17598706     0.14300
H46         H  0.19094989  0.08969012  0.18270401     0.16900
C47         C  0.03392640  0.08970070  0.19486177    -0.30700
H48         H  0.06419325  0.08762282  0.18779701     0.16900
H49         H  0.06152487  0.21533906  0.25060904     0.16900
H50         H  0.18499240  0.09041943  0.31363088     0.17000
H51         H  0.18751615  0.21694720  0.24867080     0.16900
C52         C  0.04131932  0.37552002  0.25021759     0.30800
C53         C  0.21155787  0.37635655  0.24924234     0.30800
C54         C  0.02266740  0.39636264  0.22231492    -0.05400
C55         C  0.02139913  0.33444413  0.25005456    -0.06200
C56         C  0.02093566  0.39661783  0.27774526    -0.06000
C57         C  0.23217435  0.39688599  0.22161924    -0.05400
C58         C  0.23090703  0.33496000  0.24958384    -0.06200
C59         C  0.23041320  0.39700570  0.27708958    -0.06000
C60         C  0.22194670  0.41000662  0.19245295    -0.31400
N61         N  0.00497034  0.41589712  0.17523638     0.15100
C62         C  0.03591494  0.40900470  0.19385019    -0.31400
H63         H  0.06603172  0.40920275  0.18644700     0.17000
C64         C  0.21849072  0.29592558  0.24931746    -0.30400
N65         N  0.00033282  0.27172620  0.24961137     0.13800
C66         C  0.03282834  0.29497674  0.25005366    -0.30400
C67         C  0.21744293  0.41154069  0.30515358    -0.30700
N68         N  0.99864434  0.41860336  0.32341928     0.14300
H69         H  0.18737543  0.41313079  0.31274568     0.16900
C70         C  0.03148851  0.41101760  0.30642895    -0.30700
H71         H  0.06086464  0.41329909  0.31510621     0.16900
H72         H  0.06255836  0.28421998  0.25034920     0.16900
H73         H  0.19258491  0.41231283  0.18373574     0.17000
H74         H  0.18853308  0.28604878  0.24893688     0.16900
C75         C  0.08658280  0.37512882  0.24991254     0.30800
C76         C  0.16637924  0.37585938  0.24936040     0.30800
C77         C  0.10666540  0.35380245  0.22229784    -0.05400
C78         C  0.10581730  0.41651954  0.24926610    -0.06200
C79         C  0.10629563  0.35528083  0.27774865    -0.06000
C80         C  0.14719604  0.35451048  0.22206414    -0.05400
C81         C  0.14633441  0.41687882  0.24894551    -0.06200
C82         C  0.14678992  0.35535486  0.27745524    -0.06000
C83         C  0.15959547  0.33971576  0.19395186    -0.31400
N84         N  0.12796922  0.33095047  0.17661156     0.16100
C85         C  0.09552754  0.33800686  0.19421647    -0.31400
H86         H  0.06590979  0.33457834  0.18630272     0.17000
C87         C  0.15784052  0.45618523  0.24875329    -0.30400
N88         N  0.12538500  0.47960687  0.24898833     0.13800
C89         C  0.09345775  0.45564760  0.24930085    -0.30400
C90         C  0.15854755  0.34058940  0.30570796    -0.30700
N91         N  0.12649314  0.33354114  0.32366579     0.14300
H92         H  0.18835477  0.33738798  0.31326788     0.16900
C93         C  0.09449319  0.34130622  0.30626138    -0.30700
H94         H  0.06469334  0.34018697  0.31442939     0.16900
H95         H  0.06349587  0.46572923  0.24970247     0.16900
H96         H  0.18943651  0.33878585  0.18572053     0.17000
H97         H  0.18758500  0.46673576  0.24867118     0.16900
C98         C  0.16374974  0.12618468  0.24933805     0.30800
C99         C  0.08392279  0.12544594  0.25023209     0.30800
C100        C  0.14383163  0.14651510  0.22159865    -0.05400
C101        C  0.14451286  0.08481486  0.24953022    -0.06200
C102        C  0.14368244  0.14688321  0.27740475    -0.06000
C103        C  0.10320255  0.14662878  0.22248653    -0.05400
C104        C  0.10400016  0.08445350  0.25001484    -0.06200
C105        C  0.10315886  0.14626035  0.27754324    -0.06000
C106        C  0.09051404  0.16162602  0.19470625    -0.31400
N107        N  0.12195190  0.16832166  0.17633417     0.15100
C108        C  0.15473697  0.16013800  0.19253744    -0.31400
H109        H  0.18401736  0.16191304  0.18311255     0.17000
C110        C  0.09247133  0.04516001  0.24987120    -0.30400
N111        N  0.12491688  0.02174115  0.24928251     0.13800
C112        C  0.15685047  0.04569538  0.24906228    -0.30400
C113        C  0.09044887  0.16032545  0.30566740    -0.30700
N114        N  0.12179142  0.16843088  0.32343233     0.14300
H115        H  0.06049324  0.16099629  0.31358815     0.16900
C116        C  0.15449743  0.16166356  0.30599365    -0.30700
H117        H  0.18399187  0.16469169  0.31427667     0.16900
H118        H  0.18680987  0.03561606  0.24853627     0.16900
H119        H  0.06060495  0.16418384  0.18717980     0.17000
H120        H  0.06272311  0.03461458  0.25009962     0.16900
C121        C  0.02490180  0.40640360  0.37586035    -0.20500
C122        C  0.99668147  0.42397045  0.35663169    -0.08500
C123        C  0.21545771  0.44476390  0.37059409     0.30300
C124        C  0.21338257  0.44888798  0.40280638    -0.20500
C125        C  0.99287693  0.43350335  0.42180868    -0.08500
C126        C  0.02321877  0.41130417  0.40809202     0.30300
F127        F  0.05173653  0.39520303  0.42577950    -0.19100
H128        H  0.04849266  0.38899675  0.36594778     0.18700
H129        H  0.19006964  0.46675188  0.41268940     0.18700
F130        F  0.18801423  0.46298928  0.35311061    -0.19100
C131        C  0.04175524  0.44038244  0.09492747    -0.20500
C132        C  0.00988536  0.42949365  0.07664907    -0.08500
C133        C  0.22786963  0.41072992  0.09095001     0.30300
C134        C  0.22674813  0.40569896  0.12317539    -0.20500
C135        C  0.00713075  0.41998879  0.14186362    -0.08500
C136        C  0.04022919  0.43656256  0.12713253     0.30300
F137        F  0.07034288  0.45127032  0.14366466    -0.19100
H138        H  0.06678856  0.45499198  0.08455023     0.18700
H139        H  0.20169936  0.39108830  0.13345582     0.18700
F140        F  0.19712157  0.39843669  0.07391179    -0.19100
C141        C  0.21259149  0.05621586  0.40476764    -0.20500
C142        C  0.99477809  0.06739864  0.42269355    -0.08500
C143        C  0.02639678  0.08621526  0.40790941     0.30300
C144        C  0.02642865  0.09197284  0.37572869    -0.20500
C145        C  0.99535961  0.07830683  0.35740220    -0.08500
C146        C  0.21301847  0.06088078  0.37253596     0.30300
F147        F  0.18264716  0.04623521  0.35626544    -0.19100
H148        H  0.18806502  0.04104302  0.41542459     0.18700
H149        H  0.05114631  0.10686710  0.36519967     0.18700
F150        F  0.05774259  0.09808012  0.42444307    -0.19100
C151        C  0.03984576  0.04719462  0.09852343    -0.20500
C152        C  0.01358668  0.06560460  0.07821607    -0.08500
C153        C  0.23623805  0.09259431  0.09030860     0.30300
C154        C  0.23298351  0.09841041  0.12242412    -0.20500
C155        C  0.00696254  0.07726349  0.14296177    -0.08500
C156        C  0.03647832  0.05266769  0.13057953     0.30300
F157        F  0.06095828  0.03252958  0.14951585    -0.19100
H158        H  0.06142787  0.02644858  0.08972682     0.18700
H159        H  0.21207327  0.11969667  0.13133004     0.18700
F160        F  0.21303960  0.11338529  0.07090637    -0.19100
C161        C  0.09348653  0.30281010  0.40338844    -0.20500
C162        C  0.12559512  0.31324763  0.42162988    -0.08500
C163        C  0.15799520  0.33114541  0.40727663     0.30300
C164        C  0.15800106  0.33826716  0.37520389    -0.20500
C165        C  0.12636047  0.32621311  0.35672240    -0.08500
C166        C  0.09408996  0.30825384  0.37139517     0.30300
F167        F  0.06377011  0.29398360  0.35486972    -0.19100
H168        H  0.06856421  0.28785681  0.41364950     0.18700
H169        H  0.18293913  0.35305545  0.36491801     0.18700
F170        F  0.18962211  0.34141554  0.42411403    -0.19100
C171        C  0.16184247  0.29974412  0.09714687    -0.20500
C172        C  0.13133305  0.31363182  0.07839583    -0.08500
C173        C  0.10009365  0.33416916  0.09248153     0.30300
C174        C  0.09914344  0.33973337  0.12464731    -0.20500
C175        C  0.12888186  0.32434966  0.14353009    -0.08500
C176        C  0.16041794  0.30438397  0.12931228     0.30300
F177        F  0.18878462  0.28724580  0.14655052    -0.19100
H178        H  0.18561037  0.28256150  0.08718620     0.18700
H179        H  0.07491058  0.35595174  0.13478350     0.18700
F180        F  0.06986928  0.34774666  0.07532411    -0.19100
C181        C  0.08458698  0.19650461  0.40262013    -0.20500
C182        C  0.11449775  0.18255944  0.42184185    -0.08500
C183        C  0.14660782  0.16283929  0.40814232     0.30300
C184        C  0.14899472  0.15840983  0.37587295    -0.20500
C185        C  0.11991408  0.17422819  0.35658585    -0.08500
C186        C  0.08753328  0.19321776  0.37045967     0.30300
F187        F  0.05951831  0.21048554  0.35297011    -0.19100
H188        H  0.06000856  0.21272607  0.41229700     0.18700
H189        H  0.17374359  0.14271396  0.36599883     0.18700
F190        F  0.17625748  0.14893860  0.42578637    -0.19100
C191        C  0.09776365  0.21454855  0.10051609    -0.20500
C192        C  0.11242128  0.18628235  0.07943087    -0.08500
C193        C  0.12851571  0.15085338  0.09061541     0.30300
C194        C  0.13202189  0.14504471  0.12270661    -0.20500
C195        C  0.11961940  0.17468155  0.14360771    -0.08500
C196        C  0.10131199  0.20883996  0.13234191     0.30300
F197        F  0.08766396  0.23696125  0.15222949    -0.19100
H198        H  0.08490991  0.24198335  0.09225955     0.18700
H199        H  0.14358605  0.11727090  0.13139505     0.18700
F200        F  0.13920322  0.12166160  0.07061992    -0.19100
O201        O  0.09485417  0.29235142  0.53467914    -0.72100
O202        O  0.08500441  0.21189852  0.96668348    -0.73100
O203        O  0.08429087  0.21160699  0.53398950    -0.61700
O204        O  0.09382154  0.29283191  0.96773927    -0.70100
O205        O  0.15797495  0.28412941  0.96512098    -0.69700
O206        O  0.14863415  0.20323540  0.53415354    -0.60900
O207        O  0.14908973  0.20257988  0.96665864    -0.73500
O208        O  0.15911466  0.28449991  0.53296942    -0.72200
Cu209      Cu  0.08739657  0.25238824  0.00077707     1.04600
Cu210      Cu  0.15597450  0.24333132  0.49970103     1.04300
C211        C  0.12845816  0.29793326  0.54645328     0.94100
C212        C  0.11597741  0.19780282  0.95398254     0.93200
C213        C  0.11504638  0.19836787  0.54678109     0.85400
C214        C  0.12635758  0.29793608  0.95373458     0.91600
O215        O  0.03173263  0.04013883  0.96424293    -0.72100
O216        O  0.03799556  0.45675354  0.53062212    -0.73100
O217        O  0.03007471  0.45791112  0.96378363    -0.61700
O218        O  0.04029608  0.03842258  0.53161126    -0.70100
O219        O  0.22580734  0.04064245  0.53666427    -0.69700
O220        O  0.21556992  0.46009201  0.96849993    -0.60900
O221        O  0.22351035  0.45812859  0.53558645    -0.73500
O222        O  0.21729593  0.04163811  0.96952923    -0.72200
Cu223      Cu  0.03719225  0.99828998  0.99736240     1.04600
Cu224      Cu  0.21835487  0.00019145  0.00282441     1.04300
C225        C  0.99821702  0.05077214  0.95438177     0.94100
C226        C  0.00689978  0.44709921  0.54535375     0.93200
C227        C  0.99626815  0.44938052  0.95359950     0.85400
C228        C  0.00976650  0.04927614  0.54660481     0.91600
C229        C  0.03875408  0.12497393  0.75043462     0.30800
C230        C  0.20901683  0.12567086  0.74919282     0.30800
C231        C  0.01821460  0.10422068  0.77785340    -0.05400
C232        C  0.01927143  0.16634852  0.75013240    -0.06200
C233        C  0.02019159  0.10434040  0.72260047    -0.06000
C234        C  0.22772089  0.10472045  0.77731616    -0.05400
C235        C  0.22878878  0.16678523  0.74951763    -0.06200
C236        C  0.22967977  0.10493014  0.72146032    -0.06000
C237        C  0.21498225  0.09115635  0.80586140    -0.31400
N238        N  0.99634723  0.08360302  0.82403314     0.15100
C239        C  0.02897033  0.08994269  0.80650798    -0.31400
H240        H  0.05852755  0.08704686  0.81470676     0.17000
C241        C  0.21725962  0.20624162  0.74920024    -0.30400
N242        N  0.99971446  0.22955394  0.74962419     0.13800
C243        C  0.03158768  0.20540934  0.75019162    -0.30400
C244        C  0.21995382  0.09134527  0.69221602    -0.30700
N245        N  0.00333718  0.08321292  0.67598704     0.14300
H246        H  0.19094950  0.08968934  0.68270434     0.16900
C247        C  0.03392617  0.08970008  0.69486182    -0.30700
H248        H  0.06419313  0.08762232  0.68779699     0.16900
H249        H  0.06152491  0.21533833  0.75060853     0.16900
H250        H  0.18499222  0.09042002  0.81363126     0.17000
H251        H  0.18751620  0.21694704  0.74866973     0.16900
C252        C  0.04132020  0.37551927  0.75021748     0.30800
C253        C  0.21155883  0.37635628  0.74924229     0.30800
C254        C  0.02266846  0.39636244  0.72231502    -0.05400
C255        C  0.02139988  0.33444341  0.75005389    -0.06200
C256        C  0.02093653  0.39661664  0.77774537    -0.06000
C257        C  0.23217540  0.39688606  0.72161934    -0.05400
C258        C  0.23090782  0.33495967  0.74958334    -0.06200
C259        C  0.23041427  0.39700482  0.77708976    -0.06000
C260        C  0.22194795  0.41000612  0.69245282    -0.31400
N261        N  0.00497190  0.41589651  0.67523632     0.15100
C262        C  0.03591625  0.40900413  0.69385030    -0.31400
H263        H  0.06603319  0.40920184  0.68644713     0.17000
C264        C  0.21849133  0.29592539  0.74931664    -0.30400
N265        N  0.00033316  0.27172560  0.74961018     0.13800
C266        C  0.03282884  0.29497596  0.75005269    -0.30400
C267        C  0.21744402  0.41153992  0.80515374    -0.30700
N268        N  0.99864512  0.41860245  0.82341929     0.14300
H269        H  0.18737652  0.41313042  0.81274576     0.16900
C270        C  0.03148934  0.41101641  0.80642910    -0.30700
H271        H  0.06086541  0.41329783  0.81510646     0.16900
H272        H  0.06255879  0.28421897  0.75034834     0.16900
H273        H  0.19258625  0.41231212  0.68373540     0.17000
H274        H  0.18853347  0.28604879  0.74893613     0.16900
C275        C  0.08658371  0.37512823  0.74991244     0.30800
C276        C  0.16638016  0.37585911  0.74936043     0.30800
C277        C  0.10666644  0.35380210  0.72229773    -0.05400
C278        C  0.10581814  0.41651910  0.74926624    -0.06200
C279        C  0.10629649  0.35528000  0.77774841    -0.06000
C280        C  0.14719705  0.35451035  0.72206406    -0.05400
C281        C  0.14633526  0.41687850  0.74894565    -0.06200
C282        C  0.14679080  0.35535434  0.77745518    -0.06000
C283        C  0.15959655  0.33971543  0.69395188    -0.31400
N284        N  0.12797043  0.33094971  0.67661162     0.16100
C285        C  0.09552868  0.33800605  0.69421651    -0.31400
H286        H  0.06591094  0.33457722  0.68630288     0.17000
C287        C  0.15784131  0.45618493  0.74875329    -0.30400
N288        N  0.12538578  0.47960656  0.74898828     0.13800
C289        C  0.09345855  0.45564721  0.74930085    -0.30400
C290        C  0.15854819  0.34058880  0.80570794    -0.30700
N291        N  0.12649361  0.33354001  0.82366550     0.14300
H292        H  0.18835538  0.33738769  0.81326813     0.16900
C293        C  0.09449384  0.34130487  0.80626089    -0.30700
H294        H  0.06469385  0.34018535  0.81442871     0.16900
H295        H  0.06349667  0.46572881  0.74970236     0.16900
H296        H  0.18943767  0.33878569  0.68572058     0.17000
H297        H  0.18758578  0.46673550  0.74867108     0.16900
C298        C  0.16374953  0.12618440  0.74933801     0.30800
C299        C  0.08392258  0.12544557  0.75023217     0.30800
C300        C  0.14383135  0.14651456  0.72159852    -0.05400
C301        C  0.14451269  0.08481459  0.74953040    -0.06200
C302        C  0.14368226  0.14688319  0.77740461    -0.06000
C303        C  0.10320225  0.14662821  0.72248648    -0.05400
C304        C  0.10400000  0.08445319  0.75001508    -0.06200
C305        C  0.10315868  0.14626029  0.77754319    -0.06000
C306        C  0.09051365  0.16162524  0.69470617    -0.31400
N307        N  0.12195141  0.16832073  0.67633397     0.15100
C308        C  0.15473654  0.16013715  0.69253720    -0.31400
H309        H  0.18401696  0.16191204  0.68311220     0.17000
C310        C  0.09247120  0.04515971  0.74987156    -0.30400
N311        N  0.12491678  0.02174090  0.74928291     0.13800
C312        C  0.15685032  0.04569513  0.74906252    -0.30400
C313        C  0.09044878  0.16032545  0.80566739    -0.30700
N314        N  0.12179146  0.16843097  0.82343221     0.14300
H315        H  0.06049325  0.16099623  0.81358823     0.16900
C316        C  0.15449737  0.16166371  0.80599343    -0.30700
H317        H  0.18399180  0.16469202  0.81427634     0.16900
H318        H  0.18680973  0.03561580  0.74853641     0.16900
H319        H  0.06060446  0.16418307  0.68717974     0.17000
H320        H  0.06272303  0.03461425  0.75010000     0.16900
C321        C  0.02490168  0.40640304  0.87586071    -0.20500
C322        C  0.99668201  0.42397025  0.85663161    -0.08500
C323        C  0.21545922  0.44476542  0.87059356     0.30300
C324        C  0.21338392  0.44889058  0.90280574    -0.20500
C325        C  0.99287672  0.43350451  0.92180843    -0.08500
C326        C  0.02321825  0.41130432  0.90809234     0.30300
F327        F  0.05173530  0.39520276  0.92578034    -0.19100
H328        H  0.04849220  0.38899542  0.86594854     0.18700
H329        H  0.19007142  0.46675553  0.91268827     0.18700
F330        F  0.18801647  0.46299114  0.85310960    -0.19100
C331        C  0.04175731  0.44038184  0.59492757    -0.20500
C332        C  0.00988773  0.42949252  0.57664907    -0.08500
C333        C  0.22787190  0.41072720  0.59094996     0.30300
C334        C  0.22675028  0.40569667  0.62317534    -0.20500
C335        C  0.00713272  0.41998774  0.64186357    -0.08500
C336        C  0.04023107  0.43656194  0.62713263     0.30300
F337        F  0.07034440  0.45127014  0.64366492    -0.19100
H338        H  0.06679043  0.45499185  0.58455042     0.18700
H339        H  0.20170170  0.39108573  0.63345582     0.18700
F340        F  0.19712414  0.39843319  0.57391174    -0.19100
C341        C  0.21259175  0.05621648  0.90476805    -0.20500
C342        C  0.99477797  0.06739874  0.92269372    -0.08500
C343        C  0.02639630  0.08621606  0.90790967     0.30300
C344        C  0.02642804  0.09197380  0.87572892    -0.20500
C345        C  0.99535925  0.07830717  0.85740242    -0.08500
C346        C  0.21301849  0.06088170  0.87253642     0.30300
F347        F  0.18264733  0.04623584  0.85626588    -0.19100
H348        H  0.18806543  0.04104329  0.91542497     0.18700
H349        H  0.05114539  0.10686852  0.86519987     0.18700
F350        F  0.05774190  0.09808136  0.92444341    -0.19100
C351        C  0.03984570  0.04719499  0.59852331    -0.20500
C352        C  0.01358661  0.06560496  0.57821602    -0.08500
C353        C  0.23623651  0.09259326  0.59030893     0.30300
C354        C  0.23298225  0.09840922  0.62242447    -0.20500
C355        C  0.00696243  0.07726349  0.64296172    -0.08500
C356        C  0.03647822  0.05266777  0.63057940     0.30300
F357        F  0.06095798  0.03252933  0.64951564    -0.19100
H358        H  0.06142790  0.02644898  0.58972662     0.18700
H359        H  0.21207148  0.11969493  0.63133057     0.18700
F360        F  0.21303717  0.11338357  0.57090696    -0.19100
C361        C  0.09348607  0.30280934  0.90338806    -0.20500
C362        C  0.12559407  0.31324798  0.92162977    -0.08500
C363        C  0.15799387  0.33114654  0.90727675     0.30300
C364        C  0.15800028  0.33826758  0.87520393    -0.20500
C365        C  0.12636047  0.32621233  0.85672215    -0.08500
C366        C  0.09409001  0.30825265  0.87139470     0.30300
F367        F  0.06377065  0.29398185  0.85486900    -0.19100
H368        H  0.06856395  0.28785568  0.91364900     0.18700
H369        H  0.18293821  0.35305639  0.86491818     0.18700
F370        F  0.18962007  0.34141799  0.92411446    -0.19100
C371        C  0.16184413  0.29974506  0.59714653    -0.20500
C372        C  0.13133387  0.31363149  0.57839579    -0.08500
C373        C  0.10009385  0.33416749  0.59248182     0.30300
C374        C  0.09914382  0.33973148  0.62464760    -0.20500
C375        C  0.12888306  0.32434895  0.64353011    -0.08500
C376        C  0.16041987  0.30438471  0.62931196     0.30300
F377        F  0.18878772  0.28724791  0.64654980    -0.19100
H378        H  0.18561268  0.28256356  0.58718560     0.18700
H379        H  0.07491039  0.35594883  0.63478393     0.18700
F380        F  0.06986864  0.34774375  0.57532476    -0.19100
C381        C  0.08458761  0.19650468  0.90262015    -0.20500
C382        C  0.11449863  0.18255983  0.92184176    -0.08500
C383        C  0.14660876  0.16283996  0.90814210     0.30300
C384        C  0.14899545  0.15841044  0.87587270    -0.20500
C385        C  0.11991446  0.17422844  0.85658573    -0.08500
C386        C  0.08753370  0.19321781  0.87045969     0.30300
F387        F  0.05951846  0.21048532  0.85297026    -0.19100
H388        H  0.06000908  0.21272588  0.91229711     0.18700
H389        H  0.17374434  0.14271479  0.86599848     0.18700
F390        F  0.17625861  0.14893952  0.92578606    -0.19100
C391        C  0.09776348  0.21454805  0.60051603    -0.20500
C392        C  0.11242030  0.18628156  0.57943075    -0.08500
C393        C  0.12851407  0.15085224  0.59061518     0.30300
C394        C  0.13202026  0.14504334  0.62270638    -0.20500
C395        C  0.11961870  0.17468056  0.64360753    -0.08500
C396        C  0.10131194  0.20883935  0.63234181     0.30300
F397        F  0.08766477  0.23696098  0.65222945    -0.19100
H398        H  0.08491032  0.24198315  0.59225954     0.18700
H399        H  0.14358379  0.11726930  0.63139474     0.18700
F400        F  0.13920088  0.12166034  0.57061958    -0.19100
O401        O  0.09485423  0.79235081  0.03467927    -0.72100
O402        O  0.08500438  0.71189780  0.46668371    -0.73100
O403        O  0.08429169  0.71160631  0.03398954    -0.61700
O404        O  0.09382225  0.79283115  0.46773928    -0.70100
O405        O  0.15797561  0.78412826  0.46512103    -0.69700
O406        O  0.14863506  0.70323538  0.03415362    -0.60900
O407        O  0.14908966  0.70257887  0.46665884    -0.73500
O408        O  0.15911482  0.78450006  0.03296955    -0.72200
Cu409      Cu  0.08739692  0.75238763  0.50077713     1.04600
Cu410      Cu  0.15597488  0.74333142  0.99970114     1.04300
C411        C  0.12845815  0.79793296  0.04645345     0.94100
C412        C  0.11597728  0.69780187  0.45398281     0.93200
C413        C  0.11504732  0.69836754  0.04678115     0.85400
C414        C  0.12635834  0.79793510  0.45373459     0.91600
O415        O  0.03173303  0.54013828  0.46424297    -0.72100
O416        O  0.03799481  0.95675375  0.03062185    -0.73100
O417        O  0.03007472  0.95791077  0.46378342    -0.61700
O418        O  0.04029642  0.53842283  0.03161148    -0.70100
O419        O  0.22580834  0.54064384  0.03666444    -0.69700
O420        O  0.21556962  0.96009005  0.46850018    -0.60900
O421        O  0.22351039  0.95812971  0.03558607    -0.73500
O422        O  0.21729547  0.54163648  0.46952915    -0.72200
Cu423      Cu  0.03719280  0.49828962  0.49736259     1.04600
Cu424      Cu  0.21835461  0.50019009  0.50282464     1.04300
C425        C  0.99821740  0.55077149  0.45438177     0.94100
C426        C  0.00689898  0.94709932  0.04535339     0.93200
C427        C  0.99626810  0.94937975  0.45359960     0.85400
C428        C  0.00976686  0.54927643  0.04660502     0.91600
C429        C  0.03875400  0.62497423  0.25043479     0.30800
C430        C  0.20901679  0.62567098  0.24919307     0.30800
C431        C  0.01821452  0.60422088  0.27785354    -0.05400
C432        C  0.01927133  0.66634882  0.25013262    -0.06200
C433        C  0.02019155  0.60434077  0.22260065    -0.06000
C434        C  0.22772079  0.60472039  0.27731635    -0.05400
C435        C  0.22878867  0.66678539  0.24951813    -0.06200
C436        C  0.22967987  0.60493044  0.22146051    -0.06000
C437        C  0.21498208  0.59115572  0.30586141    -0.31400
N438        N  0.99634731  0.58360254  0.32403310     0.15100
C439        C  0.02897026  0.58994238  0.30650792    -0.31400
H440        H  0.05852768  0.58704626  0.31470662     0.17000
C441        C  0.21725943  0.70624175  0.24920094    -0.30400
N442        N  0.99971428  0.72955424  0.24962484     0.13800
C443        C  0.03158752  0.70540966  0.25019201    -0.30400
C444        C  0.21995415  0.59134583  0.19221606    -0.30700
N445        N  0.00333726  0.58321313  0.17598727     0.14300
H446        H  0.19094990  0.58968991  0.18270423     0.16900
C447        C  0.03392621  0.58970034  0.19486209    -0.30700
H448        H  0.06419318  0.58762256  0.18779733     0.16900
H449        H  0.06152478  0.71533865  0.25060886     0.16900
H450        H  0.18499205  0.59041922  0.31363126     0.17000
H451        H  0.18751601  0.71694713  0.24867048     0.16900
C452        C  0.04131974  0.87551960  0.25021758     0.30800
C453        C  0.21155841  0.87635643  0.24924224     0.30800
C454        C  0.02266795  0.89636232  0.22231489    -0.05400
C455        C  0.02139942  0.83444378  0.25005439    -0.06200
C456        C  0.02093607  0.89661731  0.27774528    -0.06000
C457        C  0.23217506  0.89688575  0.22161909    -0.05400
C458        C  0.23090741  0.83495982  0.24958375    -0.06200
C459        C  0.23041378  0.89700544  0.27708951    -0.06000
C460        C  0.22194769  0.91000568  0.19245251    -0.31400
N461        N  0.00497131  0.91589597  0.17523605     0.15100
C462        C  0.03591567  0.90900378  0.19385008    -0.31400
H463        H  0.06603260  0.90920153  0.18644696     0.17000
C464        C  0.21849096  0.79592552  0.24931719    -0.30400
N465        N  0.00033288  0.77172594  0.24961092     0.13800
C466        C  0.03282846  0.79497638  0.25005339    -0.30400
C467        C  0.21744347  0.91154024  0.30515356    -0.30700
N468        N  0.99864463  0.91860247  0.32341939     0.14300
H469        H  0.18737599  0.91313048  0.31274561     0.16900
C470        C  0.03148883  0.91101663  0.30642915    -0.30700
H471        H  0.06086494  0.91329789  0.31510657     0.16900
H472        H  0.06255849  0.78421951  0.25034902     0.16900
H473        H  0.19258598  0.91231176  0.18373512     0.17000
H474        H  0.18853316  0.78604880  0.24893654     0.16900
C475        C  0.08658327  0.87512846  0.24991258     0.30800
C476        C  0.16637975  0.87585929  0.24936039     0.30800
C477        C  0.10666595  0.85380200  0.22229796    -0.05400
C478        C  0.10581773  0.91651932  0.24926604    -0.06200
C479        C  0.10629614  0.85528057  0.27774870    -0.06000
C480        C  0.14719657  0.85451021  0.22206424    -0.05400
C481        C  0.14633485  0.91687871  0.24894535    -0.06200
C482        C  0.14679046  0.85535483  0.27745532    -0.06000
C483        C  0.15959608  0.83971512  0.19395212    -0.31400
N484        N  0.12796988  0.83094932  0.17661191     0.16100
C485        C  0.09552820  0.83800576  0.19421679    -0.31400
H486        H  0.06591040  0.83457688  0.18630313     0.17000
C487        C  0.15784090  0.95618518  0.24875286    -0.30400
N488        N  0.12538536  0.97960681  0.24898789     0.13800
C489        C  0.09345813  0.95564742  0.24930062    -0.30400
C490        C  0.15854811  0.84058914  0.30570797    -0.30700
N491        N  0.12649367  0.83354046  0.32366568     0.14300
H492        H  0.18835534  0.83738774  0.31326795     0.16900
C493        C  0.09449372  0.84130544  0.30626129    -0.30700
H494        H  0.06469384  0.84018574  0.31442929     0.16900
H495        H  0.06349628  0.96572899  0.24970227     0.16900
H496        H  0.18943711  0.83878530  0.18572086     0.17000
H497        H  0.18758538  0.96673575  0.24867064     0.16900
C498        C  0.16374950  0.62618456  0.24933823     0.30800
C499        C  0.08392253  0.62544584  0.25023228     0.30800
C500        C  0.14383141  0.64651492  0.22159880    -0.05400
C501        C  0.14451260  0.58481478  0.24953046    -0.06200
C502        C  0.14368219  0.64688323  0.27740484    -0.06000
C503        C  0.10320231  0.64662854  0.22248665    -0.05400
C504        C  0.10399991  0.58445345  0.25001514    -0.06200
C505        C  0.10315860  0.64626046  0.27754333    -0.06000
C506        C  0.09051382  0.66162542  0.19470625    -0.31400
N507        N  0.12195168  0.66832081  0.17633413     0.15100
C508        C  0.15473680  0.66013744  0.19253747    -0.31400
H509        H  0.18401711  0.66191236  0.18311261     0.17000
C510        C  0.09247104  0.54516000  0.24987161    -0.30400
N511        N  0.12491658  0.52174117  0.24928295     0.13800
C512        C  0.15685019  0.54569531  0.24906256    -0.30400
C513        C  0.09044866  0.66032535  0.30566758    -0.30700
N514        N  0.12179132  0.66843056  0.32343251     0.14300
H515        H  0.06049315  0.66099595  0.31358838     0.16900
C516        C  0.15449726  0.66166336  0.30599377    -0.30700
H517        H  0.18399172  0.66469141  0.31427677     0.16900
H518        H  0.18680955  0.53561594  0.24853649     0.16900
H519        H  0.06060474  0.66418321  0.18717976     0.17000
H520        H  0.06272286  0.53461459  0.25010006     0.16900
C521        C  0.02490118  0.90640242  0.37586072    -0.20500
C522        C  0.99668149  0.92396979  0.35663176    -0.08500
C523        C  0.21545843  0.94476445  0.37059372     0.30300
C524        C  0.21338318  0.94888912  0.40280593    -0.20500
C525        C  0.99287641  0.93350354  0.42180863    -0.08500
C526        C  0.02321786  0.91130340  0.40809236     0.30300
F527        F  0.05173490  0.89520153  0.42578020    -0.19100
H528        H  0.04849167  0.88899488  0.36594839     0.18700
H529        H  0.19007056  0.96675380  0.41268861     0.18700
F530        F  0.18801550  0.96299018  0.35310991    -0.19100
C531        C  0.04175660  0.94038146  0.09492719    -0.20500
C532        C  0.00988685  0.92949246  0.07664872    -0.08500
C533        C  0.22787125  0.91072800  0.09094954     0.30300
C534        C  0.22674968  0.90569697  0.12317491    -0.20500
C535        C  0.00713209  0.91998730  0.14186326    -0.08500
C536        C  0.04023047  0.93656136  0.12713228     0.30300
F537        F  0.07034399  0.95126923  0.14366453    -0.19100
H538        H  0.06678975  0.95499131  0.08455008     0.18700
H539        H  0.20170102  0.89108617  0.13345532     0.18700
F540        F  0.19712338  0.89843435  0.07391129    -0.19100
C541        C  0.21259160  0.55621431  0.40476773    -0.20500
C542        C  0.99477827  0.56739781  0.42269361    -0.08500
C543        C  0.02639655  0.58621513  0.40790952     0.30300
C544        C  0.02642834  0.59197285  0.37572878    -0.20500
C545        C  0.99535945  0.57830632  0.35740232    -0.08500
C546        C  0.21301851  0.56087958  0.37253612     0.30300
F547        F  0.18264771  0.54623339  0.35626538    -0.19100
H548        H  0.18806534  0.54104075  0.41542455     0.18700
H549        H  0.05114561  0.60686752  0.36519978     0.18700
F550        F  0.05774212  0.59808045  0.42444325    -0.19100
C551        C  0.03984634  0.54719558  0.09852352    -0.20500
C552        C  0.01358695  0.56560524  0.07821623    -0.08500
C553        C  0.23623777  0.59259449  0.09030897     0.30300
C554        C  0.23298322  0.59841034  0.12242450    -0.20500
C555        C  0.00696263  0.57726367  0.14296196    -0.08500
C556        C  0.03647883  0.55266840  0.13057963     0.30300
F557        F  0.06095889  0.53253026  0.14951585    -0.19100
H558        H  0.06142867  0.52644980  0.08972687     0.18700
H559        H  0.21207245  0.61969608  0.13133053     0.18700
F560        F  0.21303878  0.61338498  0.07090684    -0.19100
C561        C  0.09348698  0.80280797  0.40338799    -0.20500
C562        C  0.12559489  0.81324690  0.42162974    -0.08500
C563        C  0.15799446  0.83114600  0.40727679     0.30300
C564        C  0.15800063  0.83826750  0.37520404    -0.20500
C565        C  0.12636084  0.82621219  0.35672225    -0.08500
C566        C  0.09409076  0.80825169  0.37139468     0.30300
F567        F  0.06377174  0.79398039  0.35486883    -0.19100
H568        H  0.06856509  0.78785387  0.41364885     0.18700
H569        H  0.18293830  0.85305682  0.36491833     0.18700
F570        F  0.18962047  0.84141789  0.42411453    -0.19100
C571        C  0.16184352  0.79974407  0.09714698    -0.20500
C572        C  0.13133364  0.81363096  0.07839606    -0.08500
C573        C  0.10009373  0.83416735  0.09248193     0.30300
C574        C  0.09914354  0.83973135  0.12464775    -0.20500
C575        C  0.12888251  0.82434845  0.14353040    -0.08500
C576        C  0.16041909  0.80438373  0.12931242     0.30300
F577        F  0.18878643  0.78724639  0.14655049    -0.19100
H578        H  0.18561193  0.78256214  0.08718615     0.18700
H579        H  0.07491029  0.85594899  0.13478402     0.18700
F580        F  0.06986884  0.84774398  0.07532466    -0.19100
C581        C  0.08458716  0.69650334  0.40262056    -0.20500
C582        C  0.11449836  0.68255871  0.42184210    -0.08500
C583        C  0.14660863  0.66283921  0.40814233     0.30300
C584        C  0.14899531  0.65840978  0.37587294    -0.20500
C585        C  0.11991415  0.67422765  0.35658606    -0.08500
C586        C  0.08753321  0.69321664  0.37046010     0.30300
F587        F  0.05951780  0.71048404  0.35297077    -0.19100
H588        H  0.06000852  0.71272434  0.41229757     0.18700
H589        H  0.17374433  0.64271443  0.36599871     0.18700
F590        F  0.17625876  0.64893916  0.42578616    -0.19100
C591        C  0.09776432  0.71454796  0.10051599    -0.20500
C592        C  0.11242129  0.68628138  0.07943083    -0.08500
C593        C  0.12851493  0.65085206  0.09061539     0.30300
C594        C  0.13202092  0.64504329  0.12270661    -0.20500
C595        C  0.11961918  0.67468055  0.14360765    -0.08500
C596        C  0.10131259  0.70883937  0.13234179     0.30300
F597        F  0.08766550  0.73696119  0.15222929    -0.19100
H598        H  0.08491119  0.74198296  0.09225941     0.18700
H599        H  0.14358449  0.61726930  0.13139506     0.18700
F600        F  0.13920188  0.62166008  0.07061991    -0.19100
O601        O  0.09485420  0.79235110  0.53467901    -0.72100
O602        O  0.08500443  0.71189797  0.96668360    -0.73100
O603        O  0.08429153  0.71160660  0.53398970    -0.61700
O604        O  0.09382214  0.79283134  0.96773943    -0.70100
O605        O  0.15797548  0.78412853  0.96512112    -0.69700
O606        O  0.14863488  0.70323541  0.53415366    -0.60900
O607        O  0.14908969  0.70257902  0.96665880    -0.73500
O608        O  0.15911477  0.78449995  0.53296946    -0.72200
Cu609      Cu  0.08739695  0.75238762  0.00077718     1.04600
Cu610      Cu  0.15597487  0.74333129  0.49970113     1.04300
C611        C  0.12845813  0.79793315  0.54645322     0.94100
C612        C  0.11597737  0.69780212  0.95398269     0.93200
C613        C  0.11504717  0.69836783  0.54678129     0.85400
C614        C  0.12635820  0.79793537  0.95373472     0.91600
O615        O  0.03173345  0.54013909  0.96424318    -0.72100
O616        O  0.03799469  0.95675384  0.53062196    -0.73100
O617        O  0.03007506  0.95791078  0.96378331    -0.61700
O618        O  0.04029704  0.53842225  0.53161131    -0.70100
O619        O  0.22580792  0.54064127  0.53666460    -0.69700
O620        O  0.21557014  0.96009047  0.96850010    -0.60900
O621        O  0.22350976  0.95812980  0.53558618    -0.73500
O622        O  0.21729685  0.54163972  0.96952922    -0.72200
Cu623      Cu  0.03719217  0.49829025  0.99736275     1.04600
Cu624      Cu  0.21835480  0.50019298  0.00282432     1.04300
C625        C  0.99821805  0.55077289  0.95438190     0.94100
C626        C  0.00689884  0.94709960  0.54535354     0.93200
C627        C  0.99626848  0.94937970  0.95359946     0.85400
C628        C  0.00976749  0.54927565  0.54660496     0.91600
C629        C  0.03875482  0.62497413  0.75043470     0.30800
C630        C  0.20901756  0.62567080  0.74919290     0.30800
C631        C  0.01821539  0.60422044  0.77785332    -0.05400
C632        C  0.01927204  0.66634872  0.75013273    -0.06200
C633        C  0.02019238  0.60434092  0.72260045    -0.06000
C634        C  0.22772168  0.60472008  0.77731605    -0.05400
C635        C  0.22878938  0.66678522  0.74951806    -0.06200
C636        C  0.22968053  0.60493044  0.72146024    -0.06000
C637        C  0.21498314  0.59115586  0.80586126    -0.31400
N638        N  0.99634813  0.58360288  0.82403311     0.15100
C639        C  0.02897111  0.58994242  0.80650785    -0.31400
H640        H  0.05852851  0.58704653  0.81470659     0.17000
C641        C  0.21726003  0.70624154  0.74920098    -0.30400
N642        N  0.99971470  0.72955409  0.74962508     0.13800
C643        C  0.03158806  0.70540964  0.75019216    -0.30400
C644        C  0.21995467  0.59134536  0.69221599    -0.30700
N645        N  0.00333811  0.58321313  0.67598711     0.14300
H646        H  0.19095018  0.58968921  0.68270434     0.16900
C647        C  0.03392706  0.58970046  0.69486190    -0.30700
H648        H  0.06419403  0.58762264  0.68779719     0.16900
H649        H  0.06152526  0.71533874  0.75060900     0.16900
H650        H  0.18499307  0.59041960  0.81363113     0.17000
H651        H  0.18751657  0.71694679  0.74867052     0.16900
C652        C  0.04131969  0.87551961  0.75021744     0.30800
C653        C  0.21155834  0.87635625  0.74924225     0.30800
C654        C  0.02266786  0.89636216  0.72231474    -0.05400
C655        C  0.02139948  0.83444373  0.75005441    -0.06200
C656        C  0.02093603  0.89661753  0.77774507    -0.06000
C657        C  0.23217490  0.89688568  0.72161911    -0.05400
C658        C  0.23090744  0.83495967  0.74958369    -0.06200
C659        C  0.23041371  0.89700525  0.77708954    -0.06000
C660        C  0.22194742  0.91000579  0.69245260    -0.31400
N661        N  0.00497115  0.91589628  0.67523609     0.15100
C662        C  0.03591561  0.90900406  0.69385006    -0.31400
H663        H  0.06603245  0.90920207  0.68644699     0.17000
C664        C  0.21849117  0.79592529  0.74931722    -0.30400
N665        N  0.00033313  0.77172581  0.74961112     0.13800
C666        C  0.03282864  0.79497634  0.75005351    -0.30400
C667        C  0.21744348  0.91154041  0.80515351    -0.30700
N668        N  0.99864479  0.91860311  0.82341907     0.14300
H669        H  0.18737598  0.91313075  0.81274561     0.16900
C670        C  0.03148887  0.91101728  0.80642875    -0.30700
H671        H  0.06086514  0.91329866  0.81510605     0.16900
H672        H  0.06255869  0.78421953  0.75034913     0.16900
H673        H  0.19258571  0.91231188  0.68373523     0.17000
H674        H  0.18853338  0.78604851  0.74893660     0.16900
C675        C  0.08658319  0.87512840  0.74991241     0.30800
C676        C  0.16637966  0.87585910  0.74936036     0.30800
C677        C  0.10666587  0.85380211  0.72229773    -0.05400
C678        C  0.10581769  0.91651918  0.74926606    -0.06200
C679        C  0.10629596  0.85528033  0.77774849    -0.06000
C680        C  0.14719649  0.85451023  0.72206406    -0.05400
C681        C  0.14633481  0.91687854  0.74894547    -0.06200
C682        C  0.14679026  0.85535453  0.77745520    -0.06000
C683        C  0.15959598  0.83971522  0.69395188    -0.31400
N684        N  0.12796977  0.83094964  0.67661162     0.16100
C685        C  0.09552804  0.83800610  0.69421648    -0.31400
H686        H  0.06591037  0.83457737  0.68630279     0.17000
C687        C  0.15784085  0.95618499  0.74875324    -0.30400
N688        N  0.12538528  0.97960660  0.74898828     0.13800
C689        C  0.09345807  0.95564722  0.74930080    -0.30400
C690        C  0.15854770  0.84058910  0.80570797    -0.30700
N691        N  0.12649318  0.83354057  0.82366568     0.14300
H692        H  0.18835490  0.83738782  0.81326801     0.16900
C693        C  0.09449336  0.84130549  0.80626110    -0.30700
H694        H  0.06469339  0.84018616  0.81442895     0.16900
H695        H  0.06349620  0.96572878  0.74970241     0.16900
H696        H  0.18943698  0.83878528  0.68572063     0.17000
H697        H  0.18758531  0.96673561  0.74867113     0.16900
C698        C  0.16375027  0.62618435  0.74933814     0.30800
C699        C  0.08392334  0.62544567  0.75023223     0.30800
C700        C  0.14383213  0.64651477  0.72159871    -0.05400
C701        C  0.14451340  0.58481455  0.74953036    -0.06200
C702        C  0.14368301  0.64688294  0.77740484    -0.06000
C703        C  0.10320305  0.64662851  0.72248666    -0.05400
C704        C  0.10400071  0.58445323  0.75001499    -0.06200
C705        C  0.10315942  0.64626009  0.77754337    -0.06000
C706        C  0.09051445  0.66162578  0.69470640    -0.31400
N707        N  0.12195225  0.66832134  0.67633423     0.15100
C708        C  0.15473737  0.66013751  0.69253741    -0.31400
H709        H  0.18401771  0.66191229  0.68311237     0.17000
C710        C  0.09247183  0.54515977  0.74987143    -0.30400
N711        N  0.12491736  0.52174090  0.74928285     0.13800
C712        C  0.15685097  0.54569506  0.74906251    -0.30400
C713        C  0.09044947  0.66032519  0.80566754    -0.30700
N714        N  0.12179207  0.66843063  0.82343241     0.14300
H715        H  0.06049387  0.66099604  0.81358836     0.16900
C716        C  0.15449804  0.66166335  0.80599370    -0.30700
H717        H  0.18399249  0.66469158  0.81427670     0.16900
H718        H  0.18681033  0.53561570  0.74853646     0.16900
H719        H  0.06060536  0.66418367  0.68718000     0.17000
H720        H  0.06272365  0.53461439  0.75009981     0.16900
C721        C  0.02490171  0.90640334  0.87586031    -0.20500
C722        C  0.99668183  0.92397055  0.85663144    -0.08500
C723        C  0.21545871  0.94476515  0.87059361     0.30300
C724        C  0.21338359  0.94888977  0.90280584    -0.20500
C725        C  0.99287680  0.93350382  0.92180837    -0.08500
C726        C  0.02321840  0.91130405  0.90809197     0.30300
F727        F  0.05173570  0.89520246  0.92577969    -0.19100
H728        H  0.04849238  0.88899607  0.86594791     0.18700
H729        H  0.19007097  0.96675439  0.91268867     0.18700
F730        F  0.18801569  0.96299083  0.85310986    -0.19100
C731        C  0.04175629  0.94038212  0.59492736    -0.20500
C732        C  0.00988671  0.92949284  0.57664885    -0.08500
C733        C  0.22787115  0.91072814  0.59094972     0.30300
C734        C  0.22674954  0.90569722  0.62317508    -0.20500
C735        C  0.00713188  0.91998769  0.64186333    -0.08500
C736        C  0.04023015  0.93656202  0.62713240     0.30300
F737        F  0.07034355  0.95127011  0.64366467    -0.19100
H738        H  0.06678938  0.95499218  0.58455024     0.18700
H739        H  0.20170107  0.89108610  0.63345544     0.18700
F740        F  0.19712352  0.89843405  0.57391144    -0.19100
C741        C  0.21259272  0.55621765  0.90476822    -0.20500
C742        C  0.99477925  0.56739929  0.92269375    -0.08500
C743        C  0.02639800  0.58621555  0.90790943     0.30300
C744        C  0.02642960  0.59197297  0.87572869    -0.20500
C745        C  0.99536025  0.57830720  0.85740240    -0.08500
C746        C  0.21301937  0.56088232  0.87253655     0.30300
F747        F  0.18264769  0.54623699  0.85626632    -0.19100
H748        H  0.18806609  0.54104528  0.91542535     0.18700
H749        H  0.05114737  0.60686694  0.86519946     0.18700
F750        F  0.05774402  0.59808016  0.92444295    -0.19100
C751        C  0.03984694  0.54719490  0.59852346    -0.20500
C752        C  0.01358768  0.56560460  0.57821612    -0.08500
C753        C  0.23623753  0.59259259  0.59030886     0.30300
C754        C  0.23298318  0.59840874  0.62242435    -0.20500
C755        C  0.00696344  0.57726338  0.64296181    -0.08500
C756        C  0.03647946  0.55266781  0.63057956     0.30300
F757        F  0.06095945  0.53252967  0.64951583    -0.19100
H758        H  0.06142925  0.52644898  0.58972679     0.18700
H759        H  0.21207244  0.61969458  0.63133033     0.18700
F760        F  0.21303842  0.61338296  0.57090674    -0.19100
C761        C  0.09348601  0.80281042  0.90338854    -0.20500
C762        C  0.12559476  0.81324751  0.92162996    -0.08500
C763        C  0.15799502  0.83114486  0.90727662     0.30300
C764        C  0.15800097  0.83826641  0.87520386    -0.20500
C765        C  0.12636030  0.82621268  0.85672235    -0.08500
C766        C  0.09408949  0.80825401  0.87139523     0.30300
F767        F  0.06376952  0.79398396  0.85486987    -0.19100
H768        H  0.06856346  0.78785746  0.91364967     0.18700
H769        H  0.18293927  0.85305436  0.86491796     0.18700
F770        F  0.18962207  0.84141468  0.92411395    -0.19100
C771        C  0.16184334  0.79974394  0.59714680    -0.20500
C772        C  0.13133367  0.81363122  0.57839580    -0.08500
C773        C  0.10009399  0.83416799  0.59248160     0.30300
C774        C  0.09914370  0.83973204  0.62464741    -0.20500
C775        C  0.12888243  0.82434881  0.64353012    -0.08500
C776        C  0.16041881  0.80438372  0.62931224     0.30300
F777        F  0.18878584  0.78724610  0.64655043    -0.19100
H778        H  0.18561151  0.78256174  0.58718608     0.18700
H779        H  0.07491062  0.85594994  0.63478358     0.18700
F780        F  0.06986929  0.84774495  0.57532429    -0.19100
C781        C  0.08458786  0.69650440  0.90262018    -0.20500
C782        C  0.11449859  0.68255920  0.92184192    -0.08500
C783        C  0.14660866  0.66283907  0.90814238     0.30300
C784        C  0.14899558  0.65840972  0.87587298    -0.20500
C785        C  0.11991484  0.67422798  0.85658592    -0.08500
C786        C  0.08753407  0.69321758  0.87045975     0.30300
F787        F  0.05951919  0.71048557  0.85297023    -0.19100
H788        H  0.06000937  0.71272600  0.91229707     0.18700
H789        H  0.17374448  0.64271401  0.86599880     0.18700
F790        F  0.17625828  0.64893837  0.92578646    -0.19100
C791        C  0.09776396  0.71454823  0.60051614    -0.20500
C792        C  0.11242120  0.68628178  0.57943098    -0.08500
C793        C  0.12851512  0.65085261  0.59061553     0.30300
C794        C  0.13202144  0.64504397  0.62270671    -0.20500
C795        C  0.11961955  0.67468114  0.64360778    -0.08500
C796        C  0.10131236  0.70883966  0.63234195     0.30300
F797        F  0.08766485  0.73696126  0.65222947    -0.19100
H798        H  0.08491057  0.74198307  0.59225958     0.18700
H799        H  0.14358522  0.61727005  0.63139514     0.18700
F800        F  0.13920212  0.62166065  0.57062005    -0.19100
O801        O  0.34485353  0.29235167  0.03467905    -0.72100
O802        O  0.33500402  0.21189838  0.46668351    -0.73100
O803        O  0.33429125  0.21160717  0.03398953    -0.61700
O804        O  0.34382241  0.29283159  0.46773931    -0.70100
O805        O  0.40797571  0.28412828  0.46512094    -0.69700
O806        O  0.39863461  0.20323623  0.03415345    -0.60900
O807        O  0.39908922  0.20257891  0.46665869    -0.73500
O808        O  0.40911412  0.28450081  0.03296935    -0.72200
Cu809      Cu  0.33739680  0.25238808  0.50077706     1.04600
Cu810      Cu  0.40597441  0.24333221  0.99970095     1.04300
C811        C  0.37845746  0.29793378  0.04645322     0.94100
C812        C  0.36597683  0.19780217  0.45398264     0.93200
C813        C  0.36504692  0.19836846  0.04678109     0.85400
C814        C  0.37635850  0.29793536  0.45373459     0.91600
O815        O  0.28173247  0.04013902  0.46424295    -0.72100
O816        O  0.28799433  0.45675470  0.03062231    -0.73100
O817        O  0.28007502  0.45791001  0.46378353    -0.61700
O818        O  0.29029665  0.03842279  0.03161133    -0.70100
O819        O  0.47580820  0.04064241  0.03666437    -0.69700
O820        O  0.46556960  0.46008892  0.46850051    -0.60900
O821        O  0.47350933  0.45813066  0.03558601    -0.73500
O822        O  0.46729501  0.04163708  0.46952880    -0.72200
Cu823      Cu  0.28719202  0.99829026  0.49736247     1.04600
Cu824      Cu  0.46835396  0.00019073  0.50282435     1.04300
C825        C  0.24821691  0.05077224  0.45438164     0.94100
C826        C  0.25689821  0.44710077  0.04535366     0.93200
C827        C  0.24626841  0.44937891  0.45359974     0.85400
C828        C  0.25976708  0.04927623  0.04660491     0.91600
C829        C  0.28875428  0.12497440  0.25043459     0.30800
C830        C  0.45901705  0.12567125  0.24919274     0.30800
C831        C  0.26821485  0.10422067  0.27785319    -0.05400
C832        C  0.26927157  0.16634901  0.25013275    -0.06200
C833        C  0.27019177  0.10434129  0.22260032    -0.06000
C834        C  0.47772107  0.10472036  0.27731584    -0.05400
C835        C  0.47878892  0.16678561  0.24951813    -0.06200
C836        C  0.47968009  0.10493113  0.22146002    -0.06000
C837        C  0.46498238  0.09115568  0.30586085    -0.31400
N838        N  0.24634756  0.08360258  0.32403285     0.15100
C839        C  0.27897061  0.08994234  0.30650766    -0.31400
H840        H  0.30852790  0.08704639  0.31470636     0.17000
C841        C  0.46725959  0.20624191  0.24920122    -0.30400
N842        N  0.24971435  0.22955442  0.24962534     0.13800
C843        C  0.28158766  0.20540993  0.25019238    -0.30400
C844        C  0.46995432  0.09134617  0.19221572    -0.30700
N845        N  0.25333746  0.08321363  0.17598699     0.14300
H846        H  0.44094993  0.08969012  0.18270397     0.16900
C847        C  0.28392642  0.08970088  0.19486175    -0.30700
H848        H  0.31419341  0.08762295  0.18779701     0.16900
H849        H  0.31152490  0.21533899  0.25060924     0.16900
H850        H  0.43499214  0.09041925  0.31363064     0.17000
H851        H  0.43751613  0.21694718  0.24867080     0.16900
C852        C  0.29131925  0.37552000  0.25021754     0.30800
C853        C  0.46155791  0.37635655  0.24924235     0.30800
C854        C  0.27266734  0.39636263  0.22231486    -0.05400
C855        C  0.27139906  0.33444408  0.25005450    -0.06200
C856        C  0.27093555  0.39661786  0.27774516    -0.06000
C857        C  0.48217439  0.39688598  0.22161925    -0.05400
C858        C  0.48090708  0.33496000  0.24958388    -0.06200
C859        C  0.48041326  0.39700570  0.27708958    -0.06000
C860        C  0.47194671  0.41000667  0.19245296    -0.31400
N861        N  0.25497032  0.41589737  0.17523638     0.15100
C862        C  0.28591490  0.40900493  0.19385022    -0.31400
H863        H  0.31603174  0.40920301  0.18644704     0.17000
C864        C  0.46849081  0.29592562  0.24931758    -0.30400
N865        N  0.25033276  0.27172614  0.24961133     0.13800
C866        C  0.28282828  0.29497669  0.25005366    -0.30400
C867        C  0.46744297  0.41154068  0.30515357    -0.30700
N868        N  0.24864426  0.41860334  0.32341919     0.14300
H869        H  0.43737552  0.41313075  0.31274564     0.16900
C870        C  0.28148841  0.41101759  0.30642885    -0.30700
H871        H  0.31086456  0.41329899  0.31510611     0.16900
H872        H  0.31255828  0.28421992  0.25034926     0.16900
H873        H  0.44258500  0.41231298  0.18373575     0.17000
H874        H  0.43853302  0.28604882  0.24893707     0.16900
C875        C  0.33658276  0.37512877  0.24991254     0.30800
C876        C  0.41637923  0.37585937  0.24936041     0.30800
C877        C  0.35666538  0.35380252  0.22229781    -0.05400
C878        C  0.35581727  0.41651950  0.24926618    -0.06200
C879        C  0.35629559  0.35528067  0.27774862    -0.06000
C880        C  0.39719603  0.35451057  0.22206411    -0.05400
C881        C  0.39633439  0.41687880  0.24894553    -0.06200
C882        C  0.39678989  0.35535480  0.27745524    -0.06000
C883        C  0.40959541  0.33971604  0.19395178    -0.31400
N884        N  0.37796920  0.33095072  0.17661150     0.16100
C885        C  0.34552750  0.33800697  0.19421643    -0.31400
H886        H  0.31590974  0.33457833  0.18630274     0.17000
C887        C  0.40784047  0.45618521  0.24875334    -0.30400
N888        N  0.37538493  0.47960685  0.24898853     0.13800
C889        C  0.34345771  0.45564754  0.24930106    -0.30400
C890        C  0.40854751  0.34058940  0.30570797    -0.30700
N891        N  0.37649309  0.33354104  0.32366577     0.14300
H892        H  0.43835472  0.33738803  0.31326792     0.16900
C893        C  0.34449313  0.34130603  0.30626135    -0.30700
H894        H  0.31469329  0.34018676  0.31442936     0.16900
H895        H  0.31349579  0.46572916  0.24970276     0.16900
H896        H  0.43943649  0.33878621  0.18572041     0.17000
H897        H  0.43758494  0.46673577  0.24867116     0.16900
C898        C  0.41374974  0.12618475  0.24933794     0.30800
C899        C  0.33392280  0.12544593  0.25023202     0.30800
C900        C  0.39383162  0.14651523  0.22159856    -0.05400
C901        C  0.39451290  0.08481490  0.24953001    -0.06200
C902        C  0.39368243  0.14688316  0.27740472    -0.06000
C903        C  0.35320253  0.14662886  0.22248647    -0.05400
C904        C  0.35400020  0.08445350  0.25001468    -0.06200
C905        C  0.35315885  0.14626029  0.27754319    -0.06000
C906        C  0.34051398  0.16162611  0.19470620    -0.31400
N907        N  0.37195178  0.16832177  0.17633406     0.15100
C908        C  0.40473689  0.16013806  0.19253730    -0.31400
H909        H  0.43401726  0.16191295  0.18311233     0.17000
C910        C  0.34247138  0.04516001  0.24987114    -0.30400
N911        N  0.37491694  0.02174117  0.24928248     0.13800
C912        C  0.40685050  0.04569541  0.24906209    -0.30400
C913        C  0.34044884  0.16032513  0.30566743    -0.30700
N914        N  0.37179138  0.16843036  0.32343242     0.14300
H915        H  0.31049322  0.16099593  0.31358817     0.16900
C916        C  0.40449740  0.16166327  0.30599372    -0.30700
H917        H  0.43399183  0.16469143  0.31427678     0.16900
H918        H  0.43680991  0.03561611  0.24853605     0.16900
H919        H  0.31060488  0.16418395  0.18717975     0.17000
H920        H  0.31272321  0.03461455  0.25009962     0.16900
C921        C  0.27490161  0.40640339  0.37586028    -0.20500
C922        C  0.24668135  0.42397040  0.35663162    -0.08500
C923        C  0.46545764  0.44476372  0.37059409     0.30300
C924        C  0.46338251  0.44888790  0.40280636    -0.20500
C925        C  0.24287664  0.43350302  0.42180864    -0.08500
C926        C  0.27321847  0.41130385  0.40809198     0.30300
F927        F  0.30173613  0.39520248  0.42577947    -0.19100
H928        H  0.29849237  0.38899654  0.36594774     0.18700
H929        H  0.44006957  0.46675180  0.41268935     0.18700
F930        F  0.43801414  0.46298900  0.35311060    -0.19100
C931        C  0.29175532  0.44038298  0.09492759    -0.20500
C932        C  0.25988558  0.42949421  0.07664909    -0.08500
C933        C  0.47786957  0.41072982  0.09095009     0.30300
C934        C  0.47674811  0.40569897  0.12317546    -0.20500
C935        C  0.25713080  0.41998906  0.14186363    -0.08500
C936        C  0.29022924  0.43656292  0.12713261     0.30300
F937        F  0.32034290  0.45127066  0.14366477    -0.19100
H938        H  0.31678870  0.45499270  0.08455047     0.18700
H939        H  0.45169935  0.39108834  0.13345592     0.18700
F940        F  0.44712150  0.39843642  0.07391196    -0.19100
C941        C  0.46259122  0.05621530  0.40476744    -0.20500
C942        C  0.24477804  0.06739861  0.42269349    -0.08500
C943        C  0.27639672  0.08621520  0.40790933     0.30300
C944        C  0.27642861  0.09197261  0.37572858    -0.20500
C945        C  0.24535956  0.07830654  0.35740211    -0.08500
C946        C  0.46301819  0.06088045  0.37253578     0.30300
F947        F  0.43264699  0.04623486  0.35626516    -0.19100
H948        H  0.43806476  0.04104227  0.41542430     0.18700
H949        H  0.30114624  0.10686683  0.36519949     0.18700
F950        F  0.30774250  0.09808012  0.42444299    -0.19100
C951        C  0.28984592  0.04719468  0.09852350    -0.20500
C952        C  0.26358721  0.06560508  0.07821608    -0.08500
C953        C  0.48623770  0.09259378  0.09030861     0.30300
C954        C  0.48298317  0.09840990  0.12242416    -0.20500
C955        C  0.25696277  0.07726381  0.14296173    -0.08500
C956        C  0.28647834  0.05266764  0.13057958     0.30300
F957        F  0.31095790  0.03252904  0.14951592    -0.19100
H958        H  0.31142775  0.02644834  0.08972695     0.18700
H959        H  0.46207266  0.11969576  0.13133008     0.18700
F960        F  0.46303893  0.11338441  0.07090639    -0.19100
C961        C  0.34348648  0.30280976  0.40338837    -0.20500
C962        C  0.37559502  0.31324740  0.42162984    -0.08500
C963        C  0.40799501  0.33114535  0.40727662     0.30300
C964        C  0.40800087  0.33826715  0.37520390    -0.20500
C965        C  0.37636041  0.32621294  0.35672236    -0.08500
C966        C  0.34408996  0.30825350  0.37139507     0.30300
F967        F  0.31377032  0.29398300  0.35486952    -0.19100
H968        H  0.31856420  0.28785637  0.41364943     0.18700
H969        H  0.43293888  0.35305564  0.36491805     0.18700
F970        F  0.43962184  0.34141558  0.42411405    -0.19100
C971        C  0.41184254  0.29974437  0.09714682    -0.20500
C972        C  0.38133298  0.31363183  0.07839578    -0.08500
C973        C  0.35009342  0.33416893  0.09248150     0.30300
C974        C  0.34914326  0.33973322  0.12464727    -0.20500
C975        C  0.37888185  0.32434984  0.14353002    -0.08500
C976        C  0.41041806  0.30438433  0.12931223     0.30300
F977        F  0.43878487  0.28724639  0.14655049    -0.19100
H978        H  0.43561057  0.28256187  0.08718618     0.18700
H979        H  0.32491028  0.35595140  0.13478346     0.18700
F980        F  0.31986878  0.34774602  0.07532416    -0.19100
C981        C  0.33458703  0.19650399  0.40262025    -0.20500
C982        C  0.36449790  0.18255900  0.42184195    -0.08500
C983        C  0.39660801  0.16283896  0.40814236     0.30300
C984        C  0.39899480  0.15840946  0.37587300    -0.20500
C985        C  0.36991406  0.17422761  0.35658595    -0.08500
C986        C  0.33753325  0.19321710  0.37045980     0.30300
F987        F  0.30951816  0.21048472  0.35297027    -0.19100
H988        H  0.31000854  0.21272539  0.41229712     0.18700
H989        H  0.42374376  0.14271364  0.36599881     0.18700
F990        F  0.42625773  0.14893831  0.42578635    -0.19100
C991        C  0.34776353  0.21454862  0.10051594    -0.20500
C992        C  0.36242098  0.18628231  0.07943076    -0.08500
C993        C  0.37851527  0.15085331  0.09061531     0.30300
C994        C  0.38202136  0.14504457  0.12270650    -0.20500
C995        C  0.36961911  0.17468156  0.14360759    -0.08500
C996        C  0.35131187  0.20884006  0.13234175     0.30300
F997        F  0.33766396  0.23696148  0.15222928    -0.19100
H998        H  0.33490992  0.24198343  0.09225939     0.18700
H999        H  0.39358534  0.11727073  0.13139491     0.18700
F1000       F  0.38920264  0.12166150  0.07061982    -0.19100
O1001       O  0.34485434  0.29235138  0.53467901    -0.72100
O1002       O  0.33500416  0.21189853  0.96668345    -0.73100
O1003       O  0.33429124  0.21160694  0.53398956    -0.61700
O1004       O  0.34382161  0.29283195  0.96773925    -0.70100
O1005       O  0.40797498  0.28412923  0.96512092    -0.69700
O1006       O  0.39863456  0.20323548  0.53415355    -0.60900
O1007       O  0.39908945  0.20257984  0.96665857    -0.73500
O1008       O  0.40911487  0.28449997  0.53296934    -0.72200
Cu1009     Cu  0.33739649  0.25238830  0.00077706     1.04600
Cu1010     Cu  0.40597474  0.24333130  0.49970099     1.04300
C1011       C  0.37845832  0.29793327  0.54645317     0.94100
C1012       C  0.36597714  0.19780281  0.95398248     0.93200
C1013       C  0.36504681  0.19836801  0.54678116     0.85400
C1014       C  0.37635767  0.29793604  0.95373455     0.91600
O1015       O  0.28173299  0.04013913  0.96424303    -0.72100
O1016       O  0.28799519  0.45675296  0.53062202    -0.73100
O1017       O  0.28007519  0.45791172  0.96378374    -0.61700
O1018       O  0.29029599  0.03842285  0.53161126    -0.70100
O1019       O  0.47580700  0.04064212  0.53666420    -0.69700
O1020       O  0.46556976  0.46009141  0.96850002    -0.60900
O1021       O  0.47351020  0.45812860  0.53558641    -0.73500
O1022       O  0.46729610  0.04163825  0.96952911    -0.72200
Cu1023     Cu  0.28719258  0.99829031  0.99736251     1.04600
Cu1024     Cu  0.46835490  0.00019151  0.00282429     1.04300
C1025       C  0.24821741  0.05077259  0.95438191     0.94100
C1026       C  0.25689946  0.44709861  0.54535369     0.93200
C1027       C  0.24626863  0.44938127  0.95359954     0.85400
C1028       C  0.25976635  0.04927622  0.54660483     0.91600
C1029       C  0.28875406  0.12497394  0.75043462     0.30800
C1030       C  0.45901684  0.12567083  0.74919276     0.30800
C1031       C  0.26821460  0.10422074  0.77785345    -0.05400
C1032       C  0.26927141  0.16634855  0.75013228    -0.06200
C1033       C  0.27019154  0.10434035  0.72260053    -0.06000
C1034       C  0.47772096  0.10472038  0.77731606    -0.05400
C1035       C  0.47878879  0.16678522  0.74951761    -0.06200
C1036       C  0.47967975  0.10493014  0.72146025    -0.06000
C1037       C  0.46498242  0.09115617  0.80586126    -0.31400
N1038       N  0.24634735  0.08360339  0.82403329     0.15100
C1039       C  0.27897033  0.08994289  0.80650805    -0.31400
H1040       H  0.30852771  0.08704707  0.81470683     0.17000
C1041       C  0.46725961  0.20624160  0.74920024    -0.30400
N1042       N  0.24971445  0.22955401  0.74962415     0.13800
C1043       C  0.28158768  0.20540941  0.75019146    -0.30400
C1044       C  0.46995376  0.09134535  0.69221592    -0.30700
N1045       N  0.25333705  0.08321262  0.67598720     0.14300
H1046       H  0.44094947  0.08968937  0.68270429     0.16900
C1047       C  0.28392606  0.08969983  0.69486196    -0.30700
H1048       H  0.31419306  0.08762201  0.68779715     0.16900
H1049       H  0.31152482  0.21533832  0.75060834     0.16900
H1050       H  0.43499226  0.09041984  0.81363115     0.17000
H1051       H  0.43751619  0.21694698  0.74866973     0.16900
C1052       C  0.29132022  0.37551937  0.75021746     0.30800
C1053       C  0.46155883  0.37635621  0.74924232     0.30800
C1054       C  0.27266841  0.39636250  0.72231500    -0.05400
C1055       C  0.27139987  0.33444354  0.75005391    -0.06200
C1056       C  0.27093661  0.39661675  0.77774537    -0.06000
C1057       C  0.48217541  0.39688607  0.72161940    -0.05400
C1058       C  0.48090781  0.33495963  0.74958332    -0.06200
C1059       C  0.48041425  0.39700469  0.77708981    -0.06000
C1060       C  0.47194795  0.41000612  0.69245288    -0.31400
N1061       N  0.25497172  0.41589650  0.67523632     0.15100
C1062       C  0.28591613  0.40900414  0.69385027    -0.31400
H1063       H  0.31603302  0.40920181  0.68644709     0.17000
C1064       C  0.46849128  0.29592537  0.74931663    -0.30400
N1065       N  0.25033316  0.27172572  0.74961018     0.13800
C1066       C  0.28282885  0.29497608  0.75005267    -0.30400
C1067       C  0.46744394  0.41153985  0.80515375    -0.30700
N1068       N  0.24864536  0.41860249  0.82341935     0.14300
H1069       H  0.43737645  0.41313030  0.81274575     0.16900
C1070       C  0.28148952  0.41101644  0.80642911    -0.30700
H1071       H  0.31086562  0.41329790  0.81510638     0.16900
H1072       H  0.31255881  0.28421913  0.75034825     0.16900
H1073       H  0.44258619  0.41231208  0.68373547     0.17000
H1074       H  0.43853342  0.28604879  0.74893614     0.16900
C1075       C  0.33658373  0.37512823  0.74991242     0.30800
C1076       C  0.41638017  0.37585903  0.74936045     0.30800
C1077       C  0.35666645  0.35380208  0.72229771    -0.05400
C1078       C  0.35581820  0.41651905  0.74926623    -0.06200
C1079       C  0.35629646  0.35527999  0.77774841    -0.06000
C1080       C  0.39719706  0.35451029  0.72206406    -0.05400
C1081       C  0.39633530  0.41687842  0.74894570    -0.06200
C1082       C  0.39679077  0.35535423  0.77745518    -0.06000
C1083       C  0.40959657  0.33971542  0.69395188    -0.31400
N1084       N  0.37797047  0.33094972  0.67661159     0.16100
C1085       C  0.34552869  0.33800605  0.69421647    -0.31400
H1086       H  0.31591100  0.33457724  0.68630282     0.17000
C1087       C  0.40784141  0.45618486  0.74875342    -0.30400
N1088       N  0.37538579  0.47960649  0.74898832     0.13800
C1089       C  0.34345859  0.45564711  0.74930084    -0.30400
C1090       C  0.40854815  0.34058861  0.80570791    -0.30700
N1091       N  0.37649358  0.33353996  0.82366548     0.14300
H1092       H  0.43835534  0.33738738  0.81326807     0.16900
C1093       C  0.34449379  0.34130488  0.80626090    -0.30700
H1094       H  0.31469380  0.34018538  0.81442872     0.16900
H1095       H  0.31349672  0.46572872  0.74970232     0.16900
H1096       H  0.43943772  0.33878567  0.68572062     0.17000
H1097       H  0.43758573  0.46673539  0.74867128     0.16900
C1098       C  0.41374953  0.12618435  0.74933802     0.30800
C1099       C  0.33392258  0.12544551  0.75023218     0.30800
C1100       C  0.39383134  0.14651444  0.72159851    -0.05400
C1101       C  0.39451266  0.08481450  0.74953046    -0.06200
C1102       C  0.39368228  0.14688323  0.77740459    -0.06000
C1103       C  0.35320225  0.14662803  0.72248643    -0.05400
C1104       C  0.35399997  0.08445309  0.75001518    -0.06200
C1105       C  0.35315871  0.14626036  0.77754315    -0.06000
C1106       C  0.34051365  0.16162511  0.69470611    -0.31400
N1107       N  0.37195148  0.16832060  0.67633396     0.15100
C1108       C  0.40473660  0.16013714  0.69253723    -0.31400
H1109       H  0.43401697  0.16191220  0.68311232     0.17000
C1110       C  0.34247116  0.04515960  0.74987163    -0.30400
N1111       N  0.37491675  0.02174078  0.74928291     0.13800
C1112       C  0.40685030  0.04569503  0.74906251    -0.30400
C1113       C  0.34044881  0.16032563  0.80566732    -0.30700
N1114       N  0.37179147  0.16843106  0.82343216     0.14300
H1115       H  0.31049329  0.16099650  0.81358812     0.16900
C1116       C  0.40449745  0.16166382  0.80599342    -0.30700
H1117       H  0.43399176  0.16469213  0.81427632     0.16900
H1118       H  0.43680967  0.03561570  0.74853637     0.16900
H1119       H  0.31060454  0.16418305  0.68717968     0.17000
H1120       H  0.31272300  0.03461414  0.75010005     0.16900
C1121       C  0.27490208  0.40640347  0.87586076    -0.20500
C1122       C  0.24668236  0.42397055  0.85663166    -0.08500
C1123       C  0.46545898  0.44476511  0.87059364     0.30300
C1124       C  0.46338364  0.44889006  0.90280585    -0.20500
C1125       C  0.24287723  0.43350517  0.92180848    -0.08500
C1126       C  0.27321874  0.41130491  0.90809238     0.30300
F1127       F  0.30173582  0.39520337  0.92578035    -0.19100
H1128       H  0.29849254  0.38899577  0.86594859     0.18700
H1129       H  0.44007106  0.46675488  0.91268844     0.18700
F1130       F  0.43801621  0.46299082  0.85310966    -0.19100
C1131       C  0.29175709  0.44038150  0.59492752    -0.20500
C1132       C  0.25988750  0.42949201  0.57664903    -0.08500
C1133       C  0.47787178  0.41072721  0.59094997     0.30300
C1134       C  0.47675022  0.40569662  0.62317535    -0.20500
C1135       C  0.25713251  0.41998762  0.64186357    -0.08500
C1136       C  0.29023087  0.43656174  0.62713260     0.30300
F1137       F  0.32034429  0.45126984  0.64366487    -0.19100
H1138       H  0.31679021  0.45499147  0.58455036     0.18700
H1139       H  0.45170167  0.39108557  0.63345586     0.18700
F1140       F  0.44712412  0.39843292  0.57391175    -0.19100
C1141       C  0.46259180  0.05621654  0.90476803    -0.20500
C1142       C  0.24477832  0.06739925  0.92269386    -0.08500
C1143       C  0.27639673  0.08621633  0.90790972     0.30300
C1144       C  0.27642846  0.09197392  0.87572895    -0.20500
C1145       C  0.24535940  0.07830767  0.85740256    -0.08500
C1146       C  0.46301858  0.06088165  0.87253635     0.30300
F1147       F  0.43264733  0.04623586  0.85626588    -0.19100
H1148       H  0.43806554  0.04104355  0.91542495     0.18700
H1149       H  0.30114597  0.10686826  0.86519982     0.18700
F1150       F  0.30774246  0.09808139  0.92444340    -0.19100
C1151       C  0.28984568  0.04719517  0.59852333    -0.20500
C1152       C  0.26358634  0.06560492  0.57821610    -0.08500
C1153       C  0.48623650  0.09259321  0.59030879     0.30300
C1154       C  0.48298220  0.09840931  0.62242433    -0.20500
C1155       C  0.25696221  0.07726315  0.64296188    -0.08500
C1156       C  0.28647824  0.05266777  0.63057945     0.30300
F1157       F  0.31095842  0.03252967  0.64951558    -0.19100
H1158       H  0.31142809  0.02644945  0.58972654     0.18700
H1159       H  0.46207166  0.11969520  0.63133037     0.18700
F1160       F  0.46303764  0.11338390  0.57090672    -0.19100
C1161       C  0.34348615  0.30280950  0.90338808    -0.20500
C1162       C  0.37559425  0.31324797  0.92162975    -0.08500
C1163       C  0.40799412  0.33114636  0.90727669     0.30300
C1164       C  0.40800046  0.33826751  0.87520385    -0.20500
C1165       C  0.37636049  0.32621234  0.85672213    -0.08500
C1166       C  0.34409004  0.30825272  0.87139471     0.30300
F1167       F  0.31377064  0.29398188  0.85486904    -0.19100
H1168       H  0.31856398  0.28785597  0.91364907     0.18700
H1169       H  0.43293825  0.35305627  0.86491810     0.18700
F1170       F  0.43962029  0.34141795  0.92411441    -0.19100
C1171       C  0.41184412  0.29974499  0.59714651    -0.20500
C1172       C  0.38133397  0.31363149  0.57839571    -0.08500
C1173       C  0.35009401  0.33416766  0.59248170     0.30300
C1174       C  0.34914387  0.33973156  0.62464753    -0.20500
C1175       C  0.37888309  0.32434900  0.64353007    -0.08500
C1176       C  0.41041987  0.30438472  0.62931195     0.30300
F1177       F  0.43878770  0.28724789  0.64654980    -0.19100
H1178       H  0.43561266  0.28256338  0.58718561     0.18700
H1179       H  0.32491044  0.35594885  0.63478385     0.18700
F1180       F  0.31986890  0.34774404  0.57532457    -0.19100
C1181       C  0.33458753  0.19650493  0.90261999    -0.20500
C1182       C  0.36449842  0.18255994  0.92184168    -0.08500
C1183       C  0.39660866  0.16284015  0.90814205     0.30300
C1184       C  0.39899540  0.15841066  0.87587268    -0.20500
C1185       C  0.36991442  0.17422857  0.85658566    -0.08500
C1186       C  0.33753365  0.19321807  0.87045954     0.30300
F1187       F  0.30951846  0.21048559  0.85297003    -0.19100
H1188       H  0.31000895  0.21272622  0.91229693     0.18700
H1189       H  0.42374435  0.14271497  0.86599848     0.18700
F1190       F  0.42625846  0.14893959  0.92578604    -0.19100
C1191       C  0.34776387  0.21454823  0.60051609    -0.20500
C1192       C  0.36242077  0.18628175  0.57943080    -0.08500
C1193       C  0.37851442  0.15085234  0.59061520     0.30300
C1194       C  0.38202062  0.14504344  0.62270638    -0.20500
C1195       C  0.36961892  0.17468057  0.64360754    -0.08500
C1196       C  0.35131223  0.20883943  0.63234187     0.30300
F1197       F  0.33766499  0.23696104  0.65222952    -0.19100
H1198       H  0.33491072  0.24198331  0.59225968     0.18700
H1199       H  0.39358421  0.11726940  0.63139472     0.18700
F1200       F  0.38920135  0.12166044  0.57061961    -0.19100
O1201       O  0.34485422  0.79235050  0.03467923    -0.72100
O1202       O  0.33500472  0.71189810  0.46668395    -0.73100
O1203       O  0.33429147  0.71160605  0.03398956    -0.61700
O1204       O  0.34382232  0.79283150  0.46773926    -0.70100
O1205       O  0.40797570  0.78412876  0.46512096    -0.69700
O1206       O  0.39863480  0.70323481  0.03415364    -0.60900
O1207       O  0.39909002  0.70257939  0.46665902    -0.73500
O1208       O  0.40911479  0.78449950  0.03296955    -0.72200
Cu1209     Cu  0.33739712  0.75238812  0.50077726     1.04600
Cu1210     Cu  0.40597476  0.74333085  0.99970112     1.04300
C1211       C  0.37845815  0.79793255  0.04645342     0.94100
C1212       C  0.36597764  0.69780223  0.45398304     0.93200
C1213       C  0.36504705  0.69836720  0.04678120     0.85400
C1214       C  0.37635838  0.79793544  0.45373451     0.91600
O1215       O  0.28173255  0.54013786  0.46424303    -0.72100
O1216       O  0.28799526  0.95675402  0.03062193    -0.73100
O1217       O  0.28007486  0.95791101  0.46378337    -0.61700
O1218       O  0.29029702  0.53842339  0.03161159    -0.70100
O1219       O  0.47580820  0.54064330  0.03666442    -0.69700
O1220       O  0.46556935  0.96008928  0.46850035    -0.60900
O1221       O  0.47351035  0.95812978  0.03558599    -0.73500
O1222       O  0.46729532  0.54163648  0.46952915    -0.72200
Cu1223     Cu  0.28719231  0.49828913  0.49736259     1.04600
Cu1224     Cu  0.46835448  0.50019009  0.50282462     1.04300
C1225       C  0.24821694  0.55077105  0.45438182     0.94100
C1226       C  0.25689939  0.94709955  0.04535340     0.93200
C1227       C  0.24626828  0.94937984  0.45359953     0.85400
C1228       C  0.25976745  0.54927716  0.04660506     0.91600
C1229       C  0.28875402  0.62497417  0.25043498     0.30800
C1230       C  0.45901675  0.62567106  0.24919308     0.30800
C1231       C  0.26821451  0.60422072  0.27785369    -0.05400
C1232       C  0.26927131  0.66634877  0.25013280    -0.06200
C1233       C  0.27019162  0.60434069  0.22260084    -0.06000
C1234       C  0.47772078  0.60472042  0.27731631    -0.05400
C1235       C  0.47878863  0.66678546  0.24951822    -0.06200
C1236       C  0.47967978  0.60493064  0.22146049    -0.06000
C1237       C  0.46498208  0.59115567  0.30586133    -0.31400
N1238       N  0.24634716  0.58360242  0.32403323     0.15100
C1239       C  0.27897018  0.58994230  0.30650811    -0.31400
H1240       H  0.30852754  0.58704632  0.31470693     0.17000
C1241       C  0.46725939  0.70624182  0.24920114    -0.30400
N1242       N  0.24971424  0.72955422  0.24962492     0.13800
C1243       C  0.28158748  0.70540963  0.25019217    -0.30400
C1244       C  0.46995401  0.59134586  0.19221611    -0.30700
N1245       N  0.25333748  0.58321340  0.17598734     0.14300
H1246       H  0.44094971  0.58968986  0.18270437     0.16900
C1247       C  0.28392641  0.58970038  0.19486225    -0.30700
H1248       H  0.31419329  0.58762257  0.18779761     0.16900
H1249       H  0.31152472  0.71533865  0.25060910     0.16900
H1250       H  0.43499199  0.59041909  0.31363115     0.17000
H1251       H  0.43751595  0.71694716  0.24867071     0.16900
C1252       C  0.29131982  0.87551957  0.25021751     0.30800
C1253       C  0.46155838  0.87635653  0.24924222     0.30800
C1254       C  0.27266806  0.89636220  0.22231479    -0.05400
C1255       C  0.27139947  0.83444373  0.25005441    -0.06200
C1256       C  0.27093614  0.89661743  0.27774515    -0.06000
C1257       C  0.48217503  0.89688585  0.22161909    -0.05400
C1258       C  0.48090740  0.83495993  0.24958378    -0.06200
C1259       C  0.48041368  0.89700561  0.27708948    -0.06000
C1260       C  0.47194763  0.91000593  0.19245254    -0.31400
N1261       N  0.25497144  0.91589592  0.17523598     0.15100
C1262       C  0.28591586  0.90900373  0.19385001    -0.31400
H1263       H  0.31603271  0.90920155  0.18644695     0.17000
C1264       C  0.46849089  0.79592559  0.24931738    -0.30400
N1265       N  0.25033285  0.77172589  0.24961093     0.13800
C1266       C  0.28282849  0.79497632  0.25005340    -0.30400
C1267       C  0.46744329  0.91154042  0.30515351    -0.30700
N1268       N  0.24864479  0.91860263  0.32341925     0.14300
H1269       H  0.43737580  0.91313061  0.31274550     0.16900
C1270       C  0.28148896  0.91101676  0.30642899    -0.30700
H1271       H  0.31086510  0.91329791  0.31510637     0.16900
H1272       H  0.31255849  0.78421940  0.25034901     0.16900
H1273       H  0.44258595  0.91231205  0.18373517     0.17000
H1274       H  0.43853317  0.78604897  0.24893680     0.16900
C1275       C  0.33658334  0.87512845  0.24991250     0.30800
C1276       C  0.41637975  0.87585934  0.24936032     0.30800
C1277       C  0.35666602  0.85380197  0.22229789    -0.05400
C1278       C  0.35581774  0.91651934  0.24926595    -0.06200
C1279       C  0.35629620  0.85528059  0.27774862    -0.06000
C1280       C  0.39719662  0.85451024  0.22206414    -0.05400
C1281       C  0.39633485  0.91687874  0.24894528    -0.06200
C1282       C  0.39679050  0.85535487  0.27745526    -0.06000
C1283       C  0.40959606  0.83971520  0.19395198    -0.31400
N1284       N  0.37796990  0.83094935  0.17661179     0.16100
C1285       C  0.34552819  0.83800573  0.19421672    -0.31400
H1286       H  0.31591045  0.83457683  0.18630313     0.17000
C1287       C  0.40784090  0.95618520  0.24875286    -0.30400
N1288       N  0.37538537  0.97960683  0.24898789     0.13800
C1289       C  0.34345814  0.95564744  0.24930058    -0.30400
C1290       C  0.40854810  0.84058917  0.30570792    -0.30700
N1291       N  0.37649364  0.83354044  0.32366560     0.14300
H1292       H  0.43835533  0.83738783  0.31326796     0.16900
C1293       C  0.34449373  0.84130541  0.30626116    -0.30700
H1294       H  0.31469379  0.84018572  0.31442911     0.16900
H1295       H  0.31349627  0.96572902  0.24970229     0.16900
H1296       H  0.43943714  0.83878547  0.18572062     0.17000
H1297       H  0.43758536  0.96673580  0.24867067     0.16900
C1298       C  0.41374949  0.62618458  0.24933830     0.30800
C1299       C  0.33392255  0.62544584  0.25023248     0.30800
C1300       C  0.39383135  0.64651490  0.22159887    -0.05400
C1301       C  0.39451258  0.58481478  0.24953063    -0.06200
C1302       C  0.39368228  0.64688328  0.27740495    -0.06000
C1303       C  0.35320226  0.64662855  0.22248681    -0.05400
C1304       C  0.35399990  0.58445344  0.25001536    -0.06200
C1305       C  0.35315870  0.64626044  0.27754351    -0.06000
C1306       C  0.34051371  0.66162545  0.19470643    -0.31400
N1307       N  0.37195150  0.66832081  0.17633422     0.15100
C1308       C  0.40473661  0.66013739  0.19253752    -0.31400
H1309       H  0.43401700  0.66191229  0.18311252     0.17000
C1310       C  0.34247099  0.54515999  0.24987188    -0.30400
N1311       N  0.37491652  0.52174114  0.24928319     0.13800
C1312       C  0.40685013  0.54569529  0.24906276    -0.30400
C1313       C  0.34044886  0.66032513  0.30566784    -0.30700
N1314       N  0.37179149  0.66843035  0.32343274     0.14300
H1315       H  0.31049328  0.66099570  0.31358870     0.16900
C1316       C  0.40449748  0.66166330  0.30599392    -0.30700
H1317       H  0.43399182  0.66469141  0.31427682     0.16900
H1318       H  0.43680949  0.53561591  0.24853660     0.16900
H1319       H  0.31060453  0.66418327  0.18718000     0.17000
H1320       H  0.31272281  0.53461458  0.25010038     0.16900
C1321       C  0.27490147  0.90640267  0.37586060    -0.20500
C1322       C  0.24668171  0.92397000  0.35663163    -0.08500
C1323       C  0.46545800  0.94476399  0.37059389     0.30300
C1324       C  0.46338278  0.94888846  0.40280612    -0.20500
C1325       C  0.24287664  0.93350367  0.42180853    -0.08500
C1326       C  0.27321817  0.91130361  0.40809226     0.30300
F1327       F  0.30173531  0.89520189  0.42578013    -0.19100
H1328       H  0.29849202  0.88899519  0.36594828     0.18700
H1329       H  0.44007009  0.96675296  0.41268893     0.18700
F1330       F  0.43801488  0.96298958  0.35311018    -0.19100
C1331       C  0.29175688  0.94038118  0.09492717    -0.20500
C1332       C  0.25988712  0.92949251  0.07664865    -0.08500
C1333       C  0.47787133  0.91072833  0.09094957     0.30300
C1334       C  0.47674977  0.90569743  0.12317494    -0.20500
C1335       C  0.25713219  0.91998726  0.14186320    -0.08500
C1336       C  0.29023068  0.93656110  0.12713222     0.30300
F1337       F  0.32034420  0.95126890  0.14366449    -0.19100
H1338       H  0.31679021  0.95499094  0.08455006     0.18700
H1339       H  0.45170093  0.89108666  0.13345535     0.18700
F1340       F  0.44712337  0.89843492  0.07391132    -0.19100
C1341       C  0.46259156  0.55621405  0.40476765    -0.20500
C1342       C  0.24477785  0.56739754  0.42269371    -0.08500
C1343       C  0.27639608  0.58621511  0.40790971     0.30300
C1344       C  0.27642786  0.59197291  0.37572901    -0.20500
C1345       C  0.24535918  0.57830625  0.35740244    -0.08500
C1346       C  0.46301851  0.56087933  0.37253602     0.30300
F1347       F  0.43264775  0.54623313  0.35626522    -0.19100
H1348       H  0.43806538  0.54104043  0.41542446     0.18700
H1349       H  0.30114517  0.60686784  0.36520000     0.18700
F1350       F  0.30774149  0.59808073  0.42444351    -0.19100
C1351       C  0.28984678  0.54719628  0.09852358    -0.20500
C1352       C  0.26358753  0.56560599  0.07821626    -0.08500
C1353       C  0.48623750  0.59259399  0.09030897     0.30300
C1354       C  0.48298291  0.59840990  0.12242451    -0.20500
C1355       C  0.25696295  0.57726412  0.14296201    -0.08500
C1356       C  0.28647915  0.55266887  0.13057968     0.30300
F1357       F  0.31095920  0.53253075  0.14951589    -0.19100
H1358       H  0.31142925  0.52645043  0.08972688     0.18700
H1359       H  0.46207202  0.61969556  0.13133049     0.18700
F1360       F  0.46303844  0.61338440  0.07090684    -0.19100
C1361       C  0.34348693  0.80280832  0.40338796    -0.20500
C1362       C  0.37559492  0.81324718  0.42162966    -0.08500
C1363       C  0.40799452  0.83114621  0.40727670     0.30300
C1364       C  0.40800064  0.83826774  0.37520393    -0.20500
C1365       C  0.37636082  0.82621233  0.35672217    -0.08500
C1366       C  0.34409072  0.80825195  0.37139463     0.30300
F1367       F  0.31377165  0.79398066  0.35486883    -0.19100
H1368       H  0.31856505  0.78785432  0.41364883     0.18700
H1369       H  0.43293826  0.85305704  0.36491820     0.18700
F1370       F  0.43962064  0.84141790  0.42411445    -0.19100
C1371       C  0.41184375  0.79974429  0.09714684    -0.20500
C1372       C  0.38133364  0.81363071  0.07839596    -0.08500
C1373       C  0.35009356  0.83416681  0.09248186     0.30300
C1374       C  0.34914337  0.83973086  0.12464764    -0.20500
C1375       C  0.37888250  0.82434839  0.14353029    -0.08500
C1376       C  0.41041934  0.80438407  0.12931226     0.30300
F1377       F  0.43878699  0.78724723  0.14655028    -0.19100
H1378       H  0.43561240  0.78256267  0.08718602     0.18700
H1379       H  0.32490989  0.85594829  0.13478391     0.18700
F1380       F  0.31986850  0.84774309  0.07532463    -0.19100
C1381       C  0.33458743  0.69650339  0.40262080    -0.20500
C1382       C  0.36449874  0.68255900  0.42184233    -0.08500
C1383       C  0.39660908  0.66283958  0.40814256     0.30300
C1384       C  0.39899564  0.65841004  0.37587319    -0.20500
C1385       C  0.36991441  0.67422764  0.35658628    -0.08500
C1386       C  0.33753341  0.69321660  0.37046033     0.30300
F1387       F  0.30951780  0.71048373  0.35297102    -0.19100
H1388       H  0.31000874  0.71272427  0.41229783     0.18700
H1389       H  0.42374480  0.64271467  0.36599892     0.18700
F1390       F  0.42625931  0.64893974  0.42578638    -0.19100
C1391       C  0.34776401  0.71454779  0.10051603    -0.20500
C1392       C  0.36242099  0.68628115  0.07943090    -0.08500
C1393       C  0.37851478  0.65085191  0.09061551     0.30300
C1394       C  0.38202082  0.64504327  0.12270672    -0.20500
C1395       C  0.36961893  0.67468047  0.14360774    -0.08500
C1396       C  0.35131229  0.70883922  0.13234185     0.30300
F1397       F  0.33766511  0.73696101  0.15222935    -0.19100
H1398       H  0.33491087  0.74198274  0.09225948     0.18700
H1399       H  0.39358449  0.61726930  0.13139522     0.18700
F1400       F  0.38920180  0.62165983  0.07062012    -0.19100
O1401       O  0.34485424  0.79235170  0.53467904    -0.72100
O1402       O  0.33500404  0.71189766  0.96668362    -0.73100
O1403       O  0.33429185  0.71160723  0.53398990    -0.61700
O1404       O  0.34382230  0.79283105  0.96773939    -0.70100
O1405       O  0.40797560  0.78412789  0.96512100    -0.69700
O1406       O  0.39863521  0.70323609  0.53415381    -0.60900
O1407       O  0.39908929  0.70257854  0.96665877    -0.73500
O1408       O  0.40911483  0.78450081  0.53296936    -0.72200
Cu1409     Cu  0.33739688  0.75238733  0.00077717     1.04600
Cu1410     Cu  0.40597511  0.74333195  0.49970118     1.04300
C1411       C  0.37845818  0.79793379  0.54645321     0.94100
C1412       C  0.36597692  0.69780169  0.95398272     0.93200
C1413       C  0.36504750  0.69836846  0.54678144     0.85400
C1414       C  0.37635836  0.79793492  0.95373464     0.91600
O1415       O  0.28173395  0.54013966  0.96424320    -0.72100
O1416       O  0.28799464  0.95675415  0.53062197    -0.73100
O1417       O  0.28007536  0.95791125  0.96378335    -0.61700
O1418       O  0.29029653  0.53842166  0.53161136    -0.70100
O1419       O  0.47580769  0.54064125  0.53666459    -0.69700
O1420       O  0.46557013  0.96009050  0.96850005    -0.60900
O1421       O  0.47350967  0.95812937  0.53558628    -0.73500
O1422       O  0.46729677  0.54163913  0.96952913    -0.72200
Cu1423     Cu  0.28719269  0.49829085  0.99736281     1.04600
Cu1424     Cu  0.46835471  0.50019242  0.00282430     1.04300
C1425       C  0.24821855  0.55077357  0.95438195     0.94100
C1426       C  0.25689882  0.94709981  0.54535354     0.93200
C1427       C  0.24626879  0.94938027  0.95359943     0.85400
C1428       C  0.25976701  0.54927505  0.54660502     0.91600
C1429       C  0.28875479  0.62497407  0.75043461     0.30800
C1430       C  0.45901756  0.62567072  0.74919289     0.30800
C1431       C  0.26821540  0.60422045  0.77785327    -0.05400
C1432       C  0.26927201  0.66634867  0.75013267    -0.06200
C1433       C  0.27019230  0.60434078  0.72260042    -0.06000
C1434       C  0.47772168  0.60472009  0.77731608    -0.05400
C1435       C  0.47878938  0.66678510  0.74951797    -0.06200
C1436       C  0.47968057  0.60493037  0.72146025    -0.06000
C1437       C  0.46498313  0.59115579  0.80586126    -0.31400
N1438       N  0.24634828  0.58360292  0.82403309     0.15100
C1439       C  0.27897121  0.58994239  0.80650777    -0.31400
H1440       H  0.30852859  0.58704648  0.81470644     0.17000
C1441       C  0.46726001  0.70624138  0.74920075    -0.30400
N1442       N  0.24971473  0.72955408  0.74962503     0.13800
C1443       C  0.28158810  0.70540961  0.75019213    -0.30400
C1444       C  0.46995467  0.59134534  0.69221598    -0.30700
N1445       N  0.25333786  0.58321277  0.67598717     0.14300
H1446       H  0.44095032  0.58968921  0.68270438     0.16900
C1447       C  0.28392693  0.58970020  0.69486187    -0.30700
H1448       H  0.31419376  0.58762237  0.68779710     0.16900
H1449       H  0.31152521  0.71533865  0.75060893     0.16900
H1450       H  0.43499305  0.59041953  0.81363114     0.17000
H1451       H  0.43751653  0.71694666  0.74867028     0.16900
C1452       C  0.29131973  0.87551956  0.75021743     0.30800
C1453       C  0.46155836  0.87635607  0.74924226     0.30800
C1454       C  0.27266790  0.89636224  0.72231477    -0.05400
C1455       C  0.27139950  0.83444370  0.75005432    -0.06200
C1456       C  0.27093607  0.89661730  0.77774512    -0.06000
C1457       C  0.48217492  0.89688549  0.72161912    -0.05400
C1458       C  0.48090744  0.83495948  0.74958372    -0.06200
C1459       C  0.48041375  0.89700510  0.77708954    -0.06000
C1460       C  0.47194745  0.91000551  0.69245258    -0.31400
N1461       N  0.25497116  0.91589631  0.67523610     0.15100
C1462       C  0.28591560  0.90900405  0.69385006    -0.31400
H1463       H  0.31603253  0.90920202  0.68644695     0.17000
C1464       C  0.46849110  0.79592511  0.74931715    -0.30400
N1465       N  0.25033315  0.77172579  0.74961103     0.13800
C1466       C  0.28282869  0.79497633  0.75005338    -0.30400
C1467       C  0.46744351  0.91154018  0.80515353    -0.30700
N1468       N  0.24864484  0.91860310  0.82341907     0.14300
H1469       H  0.43737606  0.91313045  0.81274566     0.16900
C1470       C  0.28148898  0.91101710  0.80642879    -0.30700
H1471       H  0.31086512  0.91329853  0.81510602     0.16900
H1472       H  0.31255873  0.78421952  0.75034897     0.16900
H1473       H  0.44258573  0.91231156  0.68373520     0.17000
H1474       H  0.43853340  0.78604834  0.74893650     0.16900
C1475       C  0.33658324  0.87512834  0.74991243     0.30800
C1476       C  0.41637969  0.87585895  0.74936037     0.30800
C1477       C  0.35666590  0.85380203  0.72229775    -0.05400
C1478       C  0.35581774  0.91651908  0.74926607    -0.06200
C1479       C  0.35629599  0.85528029  0.77774854    -0.06000
C1480       C  0.39719652  0.85451007  0.72206409    -0.05400
C1481       C  0.39633485  0.91687841  0.74894548    -0.06200
C1482       C  0.39679030  0.85535437  0.77745520    -0.06000
C1483       C  0.40959602  0.83971513  0.69395189    -0.31400
N1484       N  0.37796979  0.83094962  0.67661164     0.16100
C1485       C  0.34552812  0.83800611  0.69421650    -0.31400
H1486       H  0.31591032  0.83457741  0.68630278     0.17000
C1487       C  0.40784088  0.95618487  0.74875324    -0.30400
N1488       N  0.37538529  0.97960649  0.74898828     0.13800
C1489       C  0.34345810  0.95564712  0.74930080    -0.30400
C1490       C  0.40854780  0.84058887  0.80570793    -0.30700
N1491       N  0.37649331  0.83354047  0.82366569     0.14300
H1492       H  0.43835500  0.83738747  0.81326791     0.16900
C1493       C  0.34449346  0.84130549  0.80626119    -0.30700
H1494       H  0.31469351  0.84018613  0.81442912     0.16900
H1495       H  0.31349623  0.96572869  0.74970241     0.16900
H1496       H  0.43943703  0.83878515  0.68572060     0.17000
H1497       H  0.43758529  0.96673546  0.74867113     0.16900
C1498       C  0.41375027  0.62618428  0.74933815     0.30800
C1499       C  0.33392333  0.62544559  0.75023215     0.30800
C1500       C  0.39383220  0.64651465  0.72159870    -0.05400
C1501       C  0.39451337  0.58481447  0.74953040    -0.06200
C1502       C  0.39368296  0.64688298  0.77740480    -0.06000
C1503       C  0.35320311  0.64662831  0.72248657    -0.05400
C1504       C  0.35400068  0.58445314  0.75001501    -0.06200
C1505       C  0.35315936  0.64626020  0.77754322    -0.06000
C1506       C  0.34051461  0.66162556  0.69470634    -0.31400
N1507       N  0.37195237  0.66832126  0.67633424     0.15100
C1508       C  0.40473754  0.66013749  0.69253745    -0.31400
H1509       H  0.43401781  0.66191234  0.68311250     0.17000
C1510       C  0.34247179  0.54515967  0.74987142    -0.30400
N1511       N  0.37491735  0.52174077  0.74928285     0.13800
C1512       C  0.40685092  0.54569498  0.74906252    -0.30400
C1513       C  0.34044934  0.66032520  0.80566739    -0.30700
N1514       N  0.37179183  0.66843044  0.82343241     0.14300
H1515       H  0.31049367  0.66099604  0.81358812     0.16900
C1516       C  0.40449794  0.66166325  0.80599377    -0.30700
H1517       H  0.43399222  0.66469140  0.81427685     0.16900
H1518       H  0.43681032  0.53561558  0.74853647     0.16900
H1519       H  0.31060539  0.66418342  0.68717988     0.17000
H1520       H  0.31272362  0.53461424  0.75009979     0.16900
C1521       C  0.27490177  0.90640346  0.87586032    -0.20500
C1522       C  0.24668195  0.92397072  0.85663143    -0.08500
C1523       C  0.46545883  0.94476515  0.87059359     0.30300
C1524       C  0.46338370  0.94888999  0.90280580    -0.20500
C1525       C  0.24287714  0.93350434  0.92180834    -0.08500
C1526       C  0.27321866  0.91130444  0.90809196     0.30300
F1527       F  0.30173593  0.89520279  0.92577968    -0.19100
H1528       H  0.29849226  0.88899592  0.86594793     0.18700
H1529       H  0.44007117  0.96675466  0.91268855     0.18700
F1530       F  0.43801589  0.96299085  0.85310981    -0.19100
C1531       C  0.29175631  0.94038242  0.59492740    -0.20500
C1532       C  0.25988672  0.92949312  0.57664888    -0.08500
C1533       C  0.47787117  0.91072754  0.59094972     0.30300
C1534       C  0.47674970  0.90569659  0.62317506    -0.20500
C1535       C  0.25713184  0.91998793  0.64186336    -0.08500
C1536       C  0.29023010  0.93656229  0.62713246     0.30300
F1537       F  0.32034351  0.95127015  0.64366482    -0.19100
H1538       H  0.31678942  0.95499242  0.58455030     0.18700
H1539       H  0.45170113  0.89108538  0.63345553     0.18700
F1540       F  0.44712349  0.89843346  0.57391147    -0.19100
C1541       C  0.46259276  0.55621713  0.90476814    -0.20500
C1542       C  0.24477973  0.56739986  0.92269378    -0.08500
C1543       C  0.27639853  0.58621585  0.90790933     0.30300
C1544       C  0.27643004  0.59197321  0.87572856    -0.20500
C1545       C  0.24536051  0.57830745  0.85740240    -0.08500
C1546       C  0.46301935  0.56088197  0.87253650     0.30300
F1547       F  0.43264765  0.54623672  0.85626627    -0.19100
H1548       H  0.43806612  0.54104470  0.91542525     0.18700
H1549       H  0.30114773  0.60686693  0.86519928     0.18700
F1550       F  0.30774481  0.59808016  0.92444270    -0.19100
C1551       C  0.28984656  0.54719438  0.59852352    -0.20500
C1552       C  0.26358721  0.56560399  0.57821619    -0.08500
C1553       C  0.48623730  0.59259257  0.59030885     0.30300
C1554       C  0.48298296  0.59840874  0.62242436    -0.20500
C1555       C  0.25696311  0.57726287  0.64296189    -0.08500
C1556       C  0.28647918  0.55266738  0.63057962     0.30300
F1557       F  0.31095936  0.53252940  0.64951586    -0.19100
H1558       H  0.31142889  0.52644851  0.58972688     0.18700
H1559       H  0.46207223  0.61969445  0.63133037     0.18700
F1560       F  0.46303805  0.61338273  0.57090674    -0.19100
C1561       C  0.34348628  0.80280967  0.90338842    -0.20500
C1562       C  0.37559495  0.81324708  0.92162987    -0.08500
C1563       C  0.40799509  0.83114474  0.90727661     0.30300
C1564       C  0.40800111  0.83826635  0.87520384    -0.20500
C1565       C  0.37636049  0.82621241  0.85672231    -0.08500
C1566       C  0.34408981  0.80825343  0.87139509     0.30300
F1567       F  0.31376983  0.79398338  0.85486968    -0.19100
H1568       H  0.31856399  0.78785660  0.91364944     0.18700
H1569       H  0.43293925  0.85305445  0.86491800     0.18700
F1570       F  0.43962208  0.84141471  0.92411398    -0.19100
C1571       C  0.41184330  0.79974405  0.59714681    -0.20500
C1572       C  0.38133372  0.81363160  0.57839583    -0.08500
C1573       C  0.35009413  0.83416853  0.59248165     0.30300
C1574       C  0.34914386  0.83973235  0.62464747    -0.20500
C1575       C  0.37888242  0.82434880  0.64353016    -0.08500
C1576       C  0.41041874  0.80438358  0.62931226     0.30300
F1577       F  0.43878575  0.78724581  0.64655042    -0.19100
H1578       H  0.43561145  0.78256187  0.58718603     0.18700
H1579       H  0.32491082  0.85595042  0.63478375     0.18700
F1580       F  0.31986958  0.84774582  0.57532434    -0.19100
C1581       C  0.33458740  0.69650404  0.90262021    -0.20500
C1582       C  0.36449806  0.68255873  0.92184196    -0.08500
C1583       C  0.39660806  0.66283848  0.90814244     0.30300
C1584       C  0.39899503  0.65840916  0.87587305    -0.20500
C1585       C  0.36991447  0.67422762  0.85658594    -0.08500
C1586       C  0.33753371  0.69321727  0.87045975     0.30300
F1587       F  0.30951884  0.71048528  0.85297021    -0.19100
H1588       H  0.31000899  0.71272560  0.91229706     0.18700
H1589       H  0.42374391  0.64271325  0.86599892     0.18700
F1590       F  0.42625750  0.64893744  0.92578656    -0.19100
C1591       C  0.34776443  0.71454867  0.60051634    -0.20500
C1592       C  0.36242154  0.68628228  0.57943107    -0.08500
C1593       C  0.37851537  0.65085300  0.59061547     0.30300
C1594       C  0.38202161  0.64504417  0.62270664    -0.20500
C1595       C  0.36961974  0.67468123  0.64360781    -0.08500
C1596       C  0.35131278  0.70883995  0.63234211     0.30300
F1597       F  0.33766540  0.73696153  0.65222972    -0.19100
H1598       H  0.33491109  0.74198370  0.59225987     0.18700
H1599       H  0.39358528  0.61727016  0.63139497     0.18700
F1600       F  0.38920204  0.62166106  0.57061986    -0.19100
O1601       O  0.59485375  0.29235160  0.03467918    -0.72100
O1602       O  0.58500366  0.21189811  0.46668352    -0.73100
O1603       O  0.58429147  0.21160699  0.03398948    -0.61700
O1604       O  0.59382191  0.29283151  0.46773933    -0.70100
O1605       O  0.65797521  0.28412821  0.46512094    -0.69700
O1606       O  0.64863486  0.20323624  0.03415347    -0.60900
O1607       O  0.64908889  0.20257881  0.46665866    -0.73500
O1608       O  0.65911435  0.28450083  0.03296936    -0.72200
Cu1609     Cu  0.58739645  0.25238783  0.50077708     1.04600
Cu1610     Cu  0.65597464  0.24333225  0.99970095     1.04300
C1611       C  0.62845771  0.29793378  0.04645327     0.94100
C1612       C  0.61597651  0.19780199  0.45398264     0.93200
C1613       C  0.61504717  0.19836839  0.04678107     0.85400
C1614       C  0.62635800  0.29793533  0.45373460     0.91600
O1615       O  0.53173211  0.04013846  0.46424281    -0.72100
O1616       O  0.53799428  0.45675434  0.03062233    -0.73100
O1617       O  0.53007481  0.45791009  0.46378357    -0.61700
O1618       O  0.54029686  0.03842285  0.03161120    -0.70100
O1619       O  0.72580791  0.04064243  0.03666440    -0.69700
O1620       O  0.71557004  0.46008961  0.46850052    -0.60900
O1621       O  0.72350927  0.45813061  0.03558600    -0.73500
O1622       O  0.71729510  0.04163760  0.46952890    -0.72200
Cu1623     Cu  0.53719172  0.99828987  0.49736243     1.04600
Cu1624     Cu  0.71835393  0.00019121  0.50282440     1.04300
C1625       C  0.49821654  0.05077163  0.45438153     0.94100
C1626       C  0.50689817  0.44710039  0.04535366     0.93200
C1627       C  0.49626824  0.44937892  0.45359975     0.85400
C1628       C  0.50976725  0.04927620  0.04660482     0.91600
C1629       C  0.53875430  0.12497441  0.25043460     0.30800
C1630       C  0.70901708  0.12567130  0.24919282     0.30800
C1631       C  0.51821480  0.10422068  0.27785318    -0.05400
C1632       C  0.51927158  0.16634903  0.25013275    -0.06200
C1633       C  0.52019184  0.10434131  0.22260031    -0.06000
C1634       C  0.72772117  0.10472059  0.27731599    -0.05400
C1635       C  0.72878894  0.16678569  0.24951809    -0.06200
C1636       C  0.72968008  0.10493098  0.22146014    -0.06000
C1637       C  0.71498250  0.09115599  0.30586105    -0.31400
N1638       N  0.49634734  0.08360237  0.32403273     0.15100
C1639       C  0.52897041  0.08994228  0.30650762    -0.31400
H1640       H  0.55852777  0.08704637  0.31470642     0.17000
C1641       C  0.71725960  0.20624202  0.24920119    -0.30400
N1642       N  0.49971435  0.22955442  0.24962534     0.13800
C1643       C  0.53158765  0.20540994  0.25019238    -0.30400
C1644       C  0.71995425  0.09134594  0.19221587    -0.30700
N1645       N  0.50333755  0.08321344  0.17598701     0.14300
H1646       H  0.69094979  0.08968981  0.18270416     0.16900
C1647       C  0.53392657  0.08970067  0.19486180    -0.30700
H1648       H  0.56419341  0.08762274  0.18779712     0.16900
H1649       H  0.56152490  0.21533903  0.25060924     0.16900
H1650       H  0.68499236  0.09041956  0.31363085     0.17000
H1651       H  0.68751619  0.21694733  0.24867074     0.16900
C1652       C  0.54131931  0.37552000  0.25021752     0.30800
C1653       C  0.71155795  0.37635661  0.24924239     0.30800
C1654       C  0.52266739  0.39636263  0.22231485    -0.05400
C1655       C  0.52139914  0.33444408  0.25005449    -0.06200
C1656       C  0.52093562  0.39661786  0.27774515    -0.06000
C1657       C  0.73217444  0.39688596  0.22161921    -0.05400
C1658       C  0.73090707  0.33496007  0.24958398    -0.06200
C1659       C  0.73041334  0.39700578  0.27708959    -0.06000
C1660       C  0.72194677  0.41000656  0.19245288    -0.31400
N1661       N  0.50497037  0.41589738  0.17523639     0.15100
C1662       C  0.53591489  0.40900490  0.19385022    -0.31400
H1663       H  0.56603185  0.40920294  0.18644700     0.17000
C1664       C  0.71849074  0.29592569  0.24931762    -0.30400
N1665       N  0.50033277  0.27172614  0.24961137     0.13800
C1666       C  0.53282834  0.29497667  0.25005366    -0.30400
C1667       C  0.71744309  0.41154071  0.30515361    -0.30700
N1668       N  0.49864432  0.41860333  0.32341919     0.14300
H1669       H  0.68737559  0.41313081  0.31274571     0.16900
C1670       C  0.53148846  0.41101761  0.30642885    -0.30700
H1671       H  0.56086465  0.41329906  0.31510611     0.16900
H1672       H  0.56255833  0.28421988  0.25034923     0.16900
H1673       H  0.69258504  0.41231288  0.18373570     0.17000
H1674       H  0.68853304  0.28604896  0.24893705     0.16900
C1675       C  0.58658284  0.37512881  0.24991250     0.30800
C1676       C  0.66637930  0.37585942  0.24936045     0.30800
C1677       C  0.60666552  0.35380246  0.22229783    -0.05400
C1678       C  0.60581734  0.41651954  0.24926610    -0.06200
C1679       C  0.60629561  0.35528080  0.27774862    -0.06000
C1680       C  0.64719617  0.35451050  0.22206416    -0.05400
C1681       C  0.64633444  0.41687885  0.24894552    -0.06200
C1682       C  0.64678991  0.35535488  0.27745527    -0.06000
C1683       C  0.65959566  0.33971577  0.19395188    -0.31400
N1684       N  0.62796941  0.33095047  0.17661157     0.16100
C1685       C  0.59552771  0.33800687  0.19421645    -0.31400
H1686       H  0.56590997  0.33457837  0.18630269     0.17000
C1687       C  0.65784053  0.45618529  0.24875329    -0.30400
N1688       N  0.62538497  0.47960691  0.24898833     0.13800
C1689       C  0.59345776  0.45564759  0.24930085    -0.30400
C1690       C  0.65854744  0.34058943  0.30570801    -0.30700
N1691       N  0.62649295  0.33354107  0.32366577     0.14300
H1692       H  0.68835463  0.33738808  0.31326801     0.16900
C1693       C  0.59449308  0.34130607  0.30626129    -0.30700
H1694       H  0.56469318  0.34018677  0.31442926     0.16900
H1695       H  0.56349589  0.46572920  0.24970246     0.16900
H1696       H  0.68943667  0.33878583  0.18572057     0.17000
H1697       H  0.68758495  0.46673584  0.24867118     0.16900
C1698       C  0.66374978  0.12618478  0.24933803     0.30800
C1699       C  0.58392283  0.12544596  0.25023208     0.30800
C1700       C  0.64383163  0.14651519  0.22159859    -0.05400
C1701       C  0.64451295  0.08481491  0.24953020    -0.06200
C1702       C  0.64368244  0.14688332  0.27740474    -0.06000
C1703       C  0.60320255  0.14662881  0.22248648    -0.05400
C1704       C  0.60400026  0.08445353  0.25001484    -0.06200
C1705       C  0.60315886  0.14626046  0.27754319    -0.06000
C1706       C  0.59051397  0.16162602  0.19470618    -0.31400
N1707       N  0.62195179  0.16832159  0.17633403     0.15100
C1708       C  0.65473690  0.16013797  0.19253731    -0.31400
H1709       H  0.68401725  0.16191285  0.18311234     0.17000
C1710       C  0.59247142  0.04516005  0.24987120    -0.30400
N1711       N  0.62491697  0.02174118  0.24928254     0.13800
C1712       C  0.65685054  0.04569539  0.24906228    -0.30400
C1713       C  0.59044879  0.16032534  0.30566739    -0.30700
N1714       N  0.62179130  0.16843062  0.32343239     0.14300
H1715       H  0.56049319  0.16099600  0.31358816     0.16900
C1716       C  0.65449735  0.16166352  0.30599373    -0.30700
H1717       H  0.68399176  0.16469169  0.31427682     0.16900
H1718       H  0.68680995  0.03561603  0.24853630     0.16900
H1719       H  0.56060487  0.16418386  0.18717973     0.17000
H1720       H  0.56272325  0.03461464  0.25009964     0.16900
C1721       C  0.52490162  0.40640342  0.37586030    -0.20500
C1722       C  0.49668136  0.42397033  0.35663162    -0.08500
C1723       C  0.71545794  0.44476424  0.37059408     0.30300
C1724       C  0.71338294  0.44888856  0.40280636    -0.20500
C1725       C  0.49287657  0.43350304  0.42180864    -0.08500
C1726       C  0.52321848  0.41130394  0.40809198     0.30300
F1727       F  0.55173618  0.39520272  0.42577950    -0.19100
H1728       H  0.54849248  0.38899657  0.36594773     0.18700
H1729       H  0.69007006  0.46675254  0.41268936     0.18700
F1730       F  0.68801441  0.46298956  0.35311061    -0.19100
C1731       C  0.54175538  0.44038272  0.09492756    -0.20500
C1732       C  0.50988557  0.42949395  0.07664911    -0.08500
C1733       C  0.72786958  0.41072957  0.09094996     0.30300
C1734       C  0.72674817  0.40569869  0.12317533    -0.20500
C1735       C  0.50713080  0.41998905  0.14186365    -0.08500
C1736       C  0.54022926  0.43656284  0.12713260     0.30300
F1737       F  0.57034290  0.45127066  0.14366475    -0.19100
H1738       H  0.56678878  0.45499230  0.08455039     0.18700
H1739       H  0.70169936  0.39108806  0.13345584     0.18700
F1740       F  0.69712143  0.39843638  0.07391180    -0.19100
C1741       C  0.71259126  0.05621589  0.40476766    -0.20500
C1742       C  0.49477768  0.06739806  0.42269337    -0.08500
C1743       C  0.52639634  0.08621484  0.40790928     0.30300
C1744       C  0.52642827  0.09197233  0.37572852    -0.20500
C1745       C  0.49535928  0.07830628  0.35740200    -0.08500
C1746       C  0.71301826  0.06088097  0.37253599     0.30300
F1747       F  0.68264699  0.04623548  0.35626542    -0.19100
H1748       H  0.68806476  0.04104312  0.41542451     0.18700
H1749       H  0.55114591  0.10686661  0.36519948     0.18700
F1750       F  0.55774209  0.09807980  0.42444298    -0.19100
C1751       C  0.53984631  0.04719513  0.09852342    -0.20500
C1752       C  0.51358730  0.06560505  0.07821602    -0.08500
C1753       C  0.73623724  0.09259356  0.09030873     0.30300
C1754       C  0.73298280  0.09840961  0.12242424    -0.20500
C1755       C  0.50696290  0.07726372  0.14296172    -0.08500
C1756       C  0.53647880  0.05266803  0.13057951     0.30300
F1757       F  0.56095874  0.03252988  0.14951584    -0.19100
H1758       H  0.56142855  0.02644905  0.08972678     0.18700
H1759       H  0.71207203  0.11969537  0.13133023     0.18700
F1760       F  0.71303805  0.11338380  0.07090661    -0.19100
C1761       C  0.59348603  0.30280985  0.40338836    -0.20500
C1762       C  0.62559459  0.31324742  0.42162985    -0.08500
C1763       C  0.65799463  0.33114534  0.40727664     0.30300
C1764       C  0.65800054  0.33826718  0.37520394    -0.20500
C1765       C  0.62636010  0.32621311  0.35672238    -0.08500
C1766       C  0.59408956  0.30825376  0.37139506     0.30300
F1767       F  0.56376994  0.29398329  0.35486949    -0.19100
H1768       H  0.56856382  0.28785648  0.41364933     0.18700
H1769       H  0.68293868  0.35305560  0.36491810     0.18700
F1770       F  0.68962148  0.34141556  0.42411406    -0.19100
C1771       C  0.66184268  0.29974412  0.09714689    -0.20500
C1772       C  0.63133330  0.31363182  0.07839583    -0.08500
C1773       C  0.60009387  0.33416912  0.09248153     0.30300
C1774       C  0.59914364  0.33973335  0.12464732    -0.20500
C1775       C  0.62888207  0.32434965  0.14353009    -0.08500
C1776       C  0.66041818  0.30438400  0.12931228     0.30300
F1777       F  0.68878504  0.28724610  0.14655050    -0.19100
H1778       H  0.68561065  0.28256152  0.08718621     0.18700
H1779       H  0.57491076  0.35595171  0.13478348     0.18700
F1780       F  0.56986942  0.34774641  0.07532411    -0.19100
C1781       C  0.58458683  0.19650402  0.40262023    -0.20500
C1782       C  0.61449763  0.18255892  0.42184193    -0.08500
C1783       C  0.64660775  0.16283893  0.40814235     0.30300
C1784       C  0.64899462  0.15840946  0.37587298    -0.20500
C1785       C  0.61991386  0.17422769  0.35658593    -0.08500
C1786       C  0.58753303  0.19321719  0.37045979     0.30300
F1787       F  0.55951796  0.21048492  0.35297030    -0.19100
H1788       H  0.56000831  0.21272547  0.41229714     0.18700
H1789       H  0.67374355  0.14271376  0.36599884     0.18700
F1790       F  0.67625743  0.14893828  0.42578637    -0.19100
C1791       C  0.59776405  0.21454873  0.10051594    -0.20500
C1792       C  0.61242123  0.18628227  0.07943075    -0.08500
C1793       C  0.62851503  0.15085301  0.09061524     0.30300
C1794       C  0.63202120  0.14504429  0.12270645    -0.20500
C1795       C  0.61961923  0.17468140  0.14360755    -0.08500
C1796       C  0.60131228  0.20884005  0.13234175     0.30300
F1797       F  0.58766470  0.23696158  0.15222932    -0.19100
H1798       H  0.58491073  0.24198368  0.09225942     0.18700
H1799       H  0.64358489  0.11727035  0.13139488     0.18700
F1800       F  0.63920194  0.12166104  0.07061970    -0.19100
O1801       O  0.59485396  0.29235103  0.53467910    -0.72100
O1802       O  0.58500442  0.21189874  0.96668342    -0.73100
O1803       O  0.58429098  0.21160667  0.53398952    -0.61700
O1804       O  0.59382182  0.29283211  0.96773935    -0.70100
O1805       O  0.65797519  0.28412937  0.96512093    -0.69700
O1806       O  0.64863430  0.20323516  0.53415343    -0.60900
O1807       O  0.64908969  0.20257985  0.96665857    -0.73500
O1808       O  0.65911451  0.28449983  0.53296932    -0.72200
Cu1809     Cu  0.58739672  0.25238833  0.00077709     1.04600
Cu1810     Cu  0.65597438  0.24333114  0.49970096     1.04300
C1811       C  0.62845795  0.29793303  0.54645320     0.94100
C1812       C  0.61597736  0.19780294  0.95398247     0.93200
C1813       C  0.61504657  0.19836770  0.54678108     0.85400
C1814       C  0.62635785  0.29793617  0.95373459     0.91600
O1815       O  0.53173319  0.04013918  0.96424289    -0.72100
O1816       O  0.53799506  0.45675319  0.53062207    -0.73100
O1817       O  0.53007504  0.45791128  0.96378376    -0.61700
O1818       O  0.54029565  0.03842259  0.53161113    -0.70100
O1819       O  0.72580713  0.04064247  0.53666432    -0.69700
O1820       O  0.71556968  0.46009140  0.96849996    -0.60900
O1821       O  0.72351057  0.45812949  0.53558647    -0.73500
O1822       O  0.71729594  0.04163825  0.96952906    -0.72200
Cu1823     Cu  0.53719273  0.99829033  0.99736239     1.04600
Cu1824     Cu  0.71835479  0.00019155  0.00282428     1.04300
C1825       C  0.49821760  0.05077272  0.95438181     0.94100
C1826       C  0.50689932  0.44709873  0.54535369     0.93200
C1827       C  0.49626846  0.44938073  0.95359962     0.85400
C1828       C  0.50976603  0.04927591  0.54660473     0.91600
C1829       C  0.53875409  0.12497393  0.75043452     0.30800
C1830       C  0.70901684  0.12567078  0.74919273     0.30800
C1831       C  0.51821467  0.10422069  0.77785332    -0.05400
C1832       C  0.51927143  0.16634855  0.75013224    -0.06200
C1833       C  0.52019152  0.10434038  0.72260043    -0.06000
C1834       C  0.72772094  0.10472035  0.77731603    -0.05400
C1835       C  0.72878875  0.16678518  0.74951765    -0.06200
C1836       C  0.72967976  0.10493014  0.72146021    -0.06000
C1837       C  0.71498238  0.09115614  0.80586121    -0.31400
N1838       N  0.49634746  0.08360321  0.82403314     0.15100
C1839       C  0.52897049  0.08994272  0.80650788    -0.31400
H1840       H  0.55852778  0.08704683  0.81470658     0.17000
C1841       C  0.71725959  0.20624155  0.74920024    -0.30400
N1842       N  0.49971443  0.22955400  0.74962415     0.13800
C1843       C  0.53158768  0.20540942  0.75019143    -0.30400
C1844       C  0.71995380  0.09134544  0.69221585    -0.30700
N1845       N  0.50333699  0.08321285  0.67598708     0.14300
H1846       H  0.69094946  0.08968945  0.68270420     0.16900
C1847       C  0.53392602  0.08970004  0.69486179    -0.30700
H1848       H  0.56419301  0.08762228  0.68779697     0.16900
H1849       H  0.56152481  0.21533836  0.75060826     0.16900
H1850       H  0.68499221  0.09041977  0.81363108     0.17000
H1851       H  0.68751615  0.21694697  0.74866970     0.16900
C1852       C  0.54132021  0.37551934  0.75021750     0.30800
C1853       C  0.71155879  0.37635616  0.74924228     0.30800
C1854       C  0.52266843  0.39636252  0.72231504    -0.05400
C1855       C  0.52139986  0.33444351  0.75005390    -0.06200
C1856       C  0.52093659  0.39661666  0.77774543    -0.06000
C1857       C  0.73217539  0.39688604  0.72161937    -0.05400
C1858       C  0.73090778  0.33495956  0.74958330    -0.06200
C1859       C  0.73041419  0.39700465  0.77708979    -0.06000
C1860       C  0.72194799  0.41000625  0.69245285    -0.31400
N1861       N  0.50497167  0.41589651  0.67523635     0.15100
C1862       C  0.53591610  0.40900415  0.69385028    -0.31400
H1863       H  0.56603300  0.40920183  0.68644704     0.17000
C1864       C  0.71849127  0.29592529  0.74931663    -0.30400
N1865       N  0.50033311  0.27172571  0.74961017     0.13800
C1866       C  0.53282881  0.29497607  0.75005266    -0.30400
C1867       C  0.71744388  0.41153986  0.80515371    -0.30700
N1868       N  0.49864525  0.41860246  0.82341939     0.14300
H1869       H  0.68737637  0.41313036  0.81274569     0.16900
C1870       C  0.53148945  0.41101643  0.80642918    -0.30700
H1871       H  0.56086553  0.41329790  0.81510651     0.16900
H1872       H  0.56255876  0.28421912  0.75034827     0.16900
H1873       H  0.69258634  0.41231233  0.68373540     0.17000
H1874       H  0.68853346  0.28604863  0.74893613     0.16900
C1875       C  0.58658371  0.37512815  0.74991247     0.30800
C1876       C  0.66638014  0.37585895  0.74936040     0.30800
C1877       C  0.60666639  0.35380207  0.72229770    -0.05400
C1878       C  0.60581816  0.41651899  0.74926631    -0.06200
C1879       C  0.60629647  0.35527982  0.77774842    -0.06000
C1880       C  0.64719700  0.35451029  0.72206400    -0.05400
C1881       C  0.64633526  0.41687836  0.74894572    -0.06200
C1882       C  0.64679078  0.35535406  0.77745514    -0.06000
C1883       C  0.65959649  0.33971556  0.69395173    -0.31400
N1884       N  0.62797026  0.33094991  0.67661150     0.16100
C1885       C  0.59552856  0.33800611  0.69421646    -0.31400
H1886       H  0.56591081  0.33457723  0.68630288     0.17000
C1887       C  0.65784135  0.45618481  0.74875346    -0.30400
N1888       N  0.62538579  0.47960644  0.74898849     0.13800
C1889       C  0.59345857  0.45564708  0.74930102    -0.30400
C1890       C  0.65854821  0.34058857  0.80570791    -0.30700
N1891       N  0.62649367  0.33353995  0.82366554     0.14300
H1892       H  0.68835544  0.33738744  0.81326807     0.16900
C1893       C  0.59449384  0.34130487  0.80626098    -0.30700
H1894       H  0.56469393  0.34018551  0.81442887     0.16900
H1895       H  0.56349671  0.46572870  0.74970252     0.16900
H1896       H  0.68943748  0.33878586  0.68572042     0.17000
H1897       H  0.68758573  0.46673540  0.74867123     0.16900
C1898       C  0.66374955  0.12618423  0.74933794     0.30800
C1899       C  0.58392261  0.12544543  0.75023211     0.30800
C1900       C  0.64383138  0.14651447  0.72159849    -0.05400
C1901       C  0.64451267  0.08481441  0.74953025    -0.06200
C1902       C  0.64368235  0.14688295  0.77740458    -0.06000
C1903       C  0.60320231  0.14662805  0.72248642    -0.05400
C1904       C  0.60399997  0.08445302  0.75001497    -0.06200
C1905       C  0.60315876  0.14626007  0.77754317    -0.06000
C1906       C  0.59051368  0.16162516  0.69470614    -0.31400
N1907       N  0.62195148  0.16832069  0.67633396     0.15100
C1908       C  0.65473661  0.16013720  0.69253720    -0.31400
H1909       H  0.68401697  0.16191221  0.68311222     0.17000
C1910       C  0.59247111  0.04515955  0.74987139    -0.30400
N1911       N  0.62491670  0.02174072  0.74928266     0.13800
C1912       C  0.65685025  0.04569496  0.74906228    -0.30400
C1913       C  0.59044897  0.16032541  0.80566733    -0.30700
N1914       N  0.62179163  0.16843097  0.82343213     0.14300
H1915       H  0.56049335  0.16099634  0.81358821     0.16900
C1916       C  0.65449752  0.16166365  0.80599334    -0.30700
H1917       H  0.68399200  0.16469204  0.81427621     0.16900
H1918       H  0.68680966  0.03561561  0.74853617     0.16900
H1919       H  0.56060458  0.16418303  0.68717974     0.17000
H1920       H  0.56272294  0.03461410  0.75009984     0.16900
C1921       C  0.52490185  0.40640314  0.87586082    -0.20500
C1922       C  0.49668215  0.42397030  0.85663173    -0.08500
C1923       C  0.71545883  0.44476512  0.87059358     0.30300
C1924       C  0.71338350  0.44889011  0.90280577    -0.20500
C1925       C  0.49287699  0.43350463  0.92180857    -0.08500
C1926       C  0.52321854  0.41130450  0.90809244     0.30300
F1927       F  0.55173575  0.39520308  0.92578036    -0.19100
H1928       H  0.54849237  0.38899557  0.86594864     0.18700
H1929       H  0.69007092  0.46675489  0.91268837     0.18700
F1930       F  0.68801606  0.46299085  0.85310962    -0.19100
C1931       C  0.54175693  0.44038157  0.59492752    -0.20500
C1932       C  0.50988734  0.42949215  0.57664904    -0.08500
C1933       C  0.72787203  0.41072778  0.59094997     0.30300
C1934       C  0.72675032  0.40569702  0.62317535    -0.20500
C1935       C  0.50713242  0.41998761  0.64186358    -0.08500
C1936       C  0.54023075  0.43656176  0.62713259     0.30300
F1937       F  0.57034401  0.45127013  0.64366489    -0.19100
H1938       H  0.56679007  0.45499160  0.58455034     0.18700
H1939       H  0.70170186  0.39108592  0.63345569     0.18700
F1940       F  0.69712450  0.39843346  0.57391166    -0.19100
C1941       C  0.71259174  0.05621641  0.90476788    -0.20500
C1942       C  0.49477850  0.06739931  0.92269376    -0.08500
C1943       C  0.52639694  0.08621620  0.90790956     0.30300
C1944       C  0.52642864  0.09197377  0.87572880    -0.20500
C1945       C  0.49535952  0.07830751  0.85740244    -0.08500
C1946       C  0.71301859  0.06088144  0.87253622     0.30300
F1947       F  0.68264749  0.04623552  0.85626564    -0.19100
H1948       H  0.68806545  0.04104331  0.91542479     0.18700
H1949       H  0.55114606  0.10686805  0.86519970     0.18700
F1950       F  0.55774268  0.09808135  0.92444319    -0.19100
C1951       C  0.53984527  0.04719471  0.59852330    -0.20500
C1952       C  0.51358606  0.06560456  0.57821603    -0.08500
C1953       C  0.73623698  0.09259388  0.59030865     0.30300
C1954       C  0.73298265  0.09840989  0.62242418    -0.20500
C1955       C  0.50696208  0.07726322  0.64296176    -0.08500
C1956       C  0.53647793  0.05266761  0.63057941     0.30300
F1957       F  0.56095786  0.03252935  0.64951562    -0.19100
H1958       H  0.56142749  0.02644879  0.58972659     0.18700
H1959       H  0.71207218  0.11969607  0.63133024     0.18700
F1960       F  0.71303827  0.11338471  0.57090655    -0.19100
C1961       C  0.59348618  0.30280959  0.90338818    -0.20500
C1962       C  0.62559432  0.31324807  0.92162980    -0.08500
C1963       C  0.65799410  0.33114659  0.90727674     0.30300
C1964       C  0.65800047  0.33826757  0.87520392    -0.20500
C1965       C  0.62636058  0.32621236  0.85672221    -0.08500
C1966       C  0.59409007  0.30825288  0.87139483     0.30300
F1967       F  0.56377077  0.29398187  0.85486918    -0.19100
H1968       H  0.56856408  0.28785602  0.91364914     0.18700
H1969       H  0.68293837  0.35305636  0.86491812     0.18700
F1970       F  0.68962023  0.34141825  0.92411445    -0.19100
C1971       C  0.66184379  0.29974477  0.59714648    -0.20500
C1972       C  0.63133358  0.31363126  0.57839571    -0.08500
C1973       C  0.60009363  0.33416746  0.59248169     0.30300
C1974       C  0.59914356  0.33973151  0.62464747    -0.20500
C1975       C  0.62888281  0.32434901  0.64353000    -0.08500
C1976       C  0.66041954  0.30438465  0.62931190     0.30300
F1977       F  0.68878736  0.28724789  0.64654979    -0.19100
H1978       H  0.68561225  0.28256320  0.58718562     0.18700
H1979       H  0.57491019  0.35594896  0.63478380     0.18700
F1980       F  0.56986859  0.34774400  0.57532456    -0.19100
C1981       C  0.58458777  0.19650521  0.90261996    -0.20500
C1982       C  0.61449859  0.18256009  0.92184166    -0.08500
C1983       C  0.64660861  0.16283996  0.90814206     0.30300
C1984       C  0.64899540  0.15841039  0.87587268    -0.20500
C1985       C  0.61991460  0.17422852  0.85658564    -0.08500
C1986       C  0.58753391  0.19321817  0.87045951     0.30300
F1987       F  0.55951892  0.21048590  0.85296999    -0.19100
H1988       H  0.56000934  0.21272664  0.91229684     0.18700
H1989       H  0.67374427  0.14271452  0.86599852     0.18700
F1990       F  0.67625824  0.14893922  0.92578609    -0.19100
C1991       C  0.59776342  0.21454780  0.60051602    -0.20500
C1992       C  0.61242056  0.18628145  0.57943074    -0.08500
C1993       C  0.62851456  0.15085223  0.59061519     0.30300
C1994       C  0.63202071  0.14504337  0.62270638    -0.20500
C1995       C  0.61961881  0.17468047  0.64360752    -0.08500
C1996       C  0.60131189  0.20883915  0.63234179     0.30300
F1997       F  0.58766464  0.23696072  0.65222945    -0.19100
H1998       H  0.58491007  0.24198284  0.59225953     0.18700
H1999       H  0.64358449  0.11726942  0.63139473     0.18700
F2000       F  0.63920164  0.12166040  0.57061960    -0.19100
O2001       O  0.59485426  0.79235070  0.03467922    -0.72100
O2002       O  0.58500457  0.71189819  0.46668383    -0.73100
O2003       O  0.58429143  0.71160623  0.03398959    -0.61700
O2004       O  0.59382218  0.79283156  0.46773933    -0.70100
O2005       O  0.65797555  0.78412886  0.46512102    -0.69700
O2006       O  0.64863474  0.70323477  0.03415363    -0.60900
O2007       O  0.64908988  0.70257947  0.46665891    -0.73500
O2008       O  0.65911479  0.78449946  0.03296970    -0.72200
Cu2009     Cu  0.58739706  0.75238813  0.50077728     1.04600
Cu2010     Cu  0.65597479  0.74333085  0.99970120     1.04300
C2011       C  0.62845815  0.79793263  0.04645350     0.94100
C2012       C  0.61597752  0.69780239  0.45398289     0.93200
C2013       C  0.61504697  0.69836726  0.04678120     0.85400
C2014       C  0.62635823  0.79793561  0.45373461     0.91600
O2015       O  0.53173239  0.54013793  0.46424304    -0.72100
O2016       O  0.53799524  0.95675410  0.03062186    -0.73100
O2017       O  0.53007458  0.95791049  0.46378344    -0.61700
O2018       O  0.54029687  0.53842304  0.03161158    -0.70100
O2019       O  0.72580798  0.54064325  0.03666443    -0.69700
O2020       O  0.71556923  0.96008985  0.46850031    -0.60900
O2021       O  0.72351030  0.95812992  0.03558601    -0.73500
O2022       O  0.71729590  0.54163737  0.46952915    -0.72200
Cu2023     Cu  0.53719218  0.49828926  0.49736259     1.04600
Cu2024     Cu  0.71835488  0.50019093  0.50282462     1.04300
C2025       C  0.49821678  0.55077106  0.45438181     0.94100
C2026       C  0.50689938  0.94709972  0.04535337     0.93200
C2027       C  0.49626802  0.94937917  0.45359966     0.85400
C2028       C  0.50976727  0.54927672  0.04660505     0.91600
C2029       C  0.53875398  0.62497428  0.25043498     0.30800
C2030       C  0.70901672  0.62567109  0.24919301     0.30800
C2031       C  0.51821450  0.60422080  0.27785366    -0.05400
C2032       C  0.51927127  0.66634885  0.25013291    -0.06200
C2033       C  0.52019152  0.60434088  0.22260080    -0.06000
C2034       C  0.72772081  0.60472057  0.27731628    -0.05400
C2035       C  0.72878861  0.66678549  0.24951802    -0.06200
C2036       C  0.72967970  0.60493057  0.22146042    -0.06000
C2037       C  0.71498225  0.59115582  0.30586133    -0.31400
N2038       N  0.49634713  0.58360239  0.32403317     0.15100
C2039       C  0.52897017  0.58994235  0.30650808    -0.31400
H2040       H  0.55852752  0.58704638  0.31470689     0.17000
C2041       C  0.71725939  0.70624184  0.24920091    -0.30400
N2042       N  0.49971419  0.72955426  0.24962517     0.13800
C2043       C  0.53158743  0.70540971  0.25019237    -0.30400
C2044       C  0.71995385  0.59134562  0.19221610    -0.30700
N2045       N  0.50333731  0.58321335  0.17598737     0.14300
H2046       H  0.69094954  0.58968954  0.18270442     0.16900
C2047       C  0.53392626  0.58970041  0.19486224    -0.30700
H2048       H  0.56419310  0.58762252  0.18779761     0.16900
H2049       H  0.56152467  0.71533871  0.25060925     0.16900
H2050       H  0.68499208  0.59041921  0.31363125     0.17000
H2051       H  0.68751595  0.71694719  0.24867054     0.16900
C2052       C  0.54131976  0.87551971  0.25021755     0.30800
C2053       C  0.71155834  0.87635655  0.24924224     0.30800
C2054       C  0.52266801  0.89636237  0.22231482    -0.05400
C2055       C  0.52139944  0.83444386  0.25005444    -0.06200
C2056       C  0.52093603  0.89661760  0.27774518    -0.06000
C2057       C  0.73217499  0.89688586  0.22161910    -0.05400
C2058       C  0.73090735  0.83495994  0.24958376    -0.06200
C2059       C  0.73041363  0.89700561  0.27708952    -0.06000
C2060       C  0.72194757  0.91000593  0.19245255    -0.31400
N2061       N  0.50497142  0.91589627  0.17523605     0.15100
C2062       C  0.53591583  0.90900404  0.19385007    -0.31400
H2063       H  0.56603264  0.90920192  0.18644700     0.17000
C2064       C  0.71849084  0.79592559  0.24931723    -0.30400
N2065       N  0.50033280  0.77172599  0.24961117     0.13800
C2066       C  0.53282843  0.79497641  0.25005358    -0.30400
C2067       C  0.71744323  0.91154043  0.30515355    -0.30700
N2068       N  0.49864455  0.91860275  0.32341927     0.14300
H2069       H  0.68737573  0.91313066  0.31274555     0.16900
C2070       C  0.53148877  0.91101698  0.30642903    -0.30700
H2071       H  0.56086486  0.91329820  0.31510642     0.16900
H2072       H  0.56255844  0.78421951  0.25034928     0.16900
H2073       H  0.69258590  0.91231210  0.18373519     0.17000
H2074       H  0.68853314  0.78604897  0.24893649     0.16900
C2075       C  0.58658329  0.87512857  0.24991255     0.30800
C2076       C  0.66637972  0.87585939  0.24936037     0.30800
C2077       C  0.60666596  0.85380216  0.22229792    -0.05400
C2078       C  0.60581774  0.91651940  0.24926605    -0.06200
C2079       C  0.60629614  0.85528064  0.27774865    -0.06000
C2080       C  0.64719656  0.85451042  0.22206415    -0.05400
C2081       C  0.64633484  0.91687878  0.24894540    -0.06200
C2082       C  0.64679045  0.85535484  0.27745527    -0.06000
C2083       C  0.65959604  0.83971542  0.19395198    -0.31400
N2084       N  0.62796981  0.83094956  0.17661185     0.16100
C2085       C  0.59552811  0.83800598  0.19421676    -0.31400
H2086       H  0.56591037  0.83457713  0.18630317     0.17000
C2087       C  0.65784092  0.95618522  0.24875304    -0.30400
N2088       N  0.62538536  0.97960686  0.24898806     0.13800
C2089       C  0.59345816  0.95564749  0.24930067    -0.30400
C2090       C  0.65854801  0.84058916  0.30570796    -0.30700
N2091       N  0.62649353  0.83354055  0.32366565     0.14300
H2092       H  0.68835523  0.83738781  0.31326805     0.16900
C2093       C  0.59449364  0.84130561  0.30626121    -0.30700
H2094       H  0.56469372  0.84018606  0.31442921     0.16900
H2095       H  0.56349624  0.96572908  0.24970222     0.16900
H2096       H  0.68943703  0.83878559  0.18572066     0.17000
H2097       H  0.68758533  0.96673579  0.24867082     0.16900
C2098       C  0.66374943  0.62618462  0.24933825     0.30800
C2099       C  0.58392249  0.62544590  0.25023246     0.30800
C2100       C  0.64383130  0.64651494  0.22159884    -0.05400
C2101       C  0.64451252  0.58481484  0.24953051    -0.06200
C2102       C  0.64368222  0.64688330  0.27740492    -0.06000
C2103       C  0.60320221  0.64662859  0.22248678    -0.05400
C2104       C  0.60399983  0.58445349  0.25001526    -0.06200
C2105       C  0.60315864  0.64626047  0.27754350    -0.06000
C2106       C  0.59051367  0.66162554  0.19470643    -0.31400
N2107       N  0.62195145  0.66832095  0.17633423     0.15100
C2108       C  0.65473657  0.66013744  0.19253750    -0.31400
H2109       H  0.68401695  0.66191224  0.18311249     0.17000
C2110       C  0.59247095  0.54516004  0.24987168    -0.30400
N2111       N  0.62491652  0.52174121  0.24928295     0.13800
C2112       C  0.65685008  0.54569538  0.24906256    -0.30400
C2113       C  0.59044881  0.66032532  0.30566778    -0.30700
N2114       N  0.62179145  0.66843066  0.32343262     0.14300
H2115       H  0.56049324  0.66099591  0.31358868     0.16900
C2116       C  0.65449739  0.66166355  0.30599381    -0.30700
H2117       H  0.68399183  0.66469177  0.31427670     0.16900
H2118       H  0.68680949  0.53561602  0.24853645     0.16900
H2119       H  0.56060448  0.66418334  0.18717999     0.17000
H2120       H  0.56272278  0.53461464  0.25010014     0.16900
C2121       C  0.52490122  0.90640249  0.37586056    -0.20500
C2122       C  0.49668139  0.92396984  0.35663168    -0.08500
C2123       C  0.71545802  0.94476421  0.37059389     0.30300
C2124       C  0.71338275  0.94888879  0.40280610    -0.20500
C2125       C  0.49287636  0.93350309  0.42180862    -0.08500
C2126       C  0.52321798  0.91130332  0.40809223     0.30300
F2127       F  0.55173535  0.89520183  0.42577996    -0.19100
H2128       H  0.54849181  0.88899519  0.36594818     0.18700
H2129       H  0.69007013  0.96675344  0.41268886     0.18700
F2130       F  0.68801505  0.96298992  0.35311013    -0.19100
C2131       C  0.54175686  0.94038176  0.09492723    -0.20500
C2132       C  0.50988716  0.92949287  0.07664869    -0.08500
C2133       C  0.72787131  0.91072856  0.09094959     0.30300
C2134       C  0.72674964  0.90569755  0.12317496    -0.20500
C2135       C  0.50713223  0.91998770  0.14186326    -0.08500
C2136       C  0.54023071  0.93656168  0.12713229     0.30300
F2137       F  0.57034432  0.95126945  0.14366451    -0.19100
H2138       H  0.56679012  0.95499160  0.08455011     0.18700
H2139       H  0.70170100  0.89108670  0.13345525     0.18700
F2140       F  0.69712351  0.89843490  0.07391127    -0.19100
C2141       C  0.71259187  0.55621486  0.40476774    -0.20500
C2142       C  0.49477770  0.56739748  0.42269368    -0.08500
C2143       C  0.52639590  0.58621518  0.40790975     0.30300
C2144       C  0.52642774  0.59197291  0.37572902    -0.20500
C2145       C  0.49535915  0.57830615  0.35740239    -0.08500
C2146       C  0.71301872  0.56087989  0.37253607     0.30300
F2147       F  0.68264774  0.54623376  0.35626544    -0.19100
H2148       H  0.68806562  0.54104158  0.41542464     0.18700
H2149       H  0.55114506  0.60686797  0.36520005     0.18700
F2150       F  0.55774111  0.59808102  0.42444368    -0.19100
C2151       C  0.53984652  0.54719580  0.09852362    -0.20500
C2152       C  0.51358727  0.56560551  0.07821628    -0.08500
C2153       C  0.73623741  0.59259383  0.09030896     0.30300
C2154       C  0.73298284  0.59840978  0.12242447    -0.20500
C2155       C  0.50696279  0.57726391  0.14296204    -0.08500
C2156       C  0.53647896  0.55266857  0.13057972     0.30300
F2157       F  0.56095910  0.53253051  0.14951591    -0.19100
H2158       H  0.56142892  0.52644999  0.08972696     0.18700
H2159       H  0.71207200  0.61969551  0.13133046     0.18700
F2160       F  0.71303833  0.61338416  0.07090682    -0.19100
C2161       C  0.59348686  0.80280831  0.40338802    -0.20500
C2162       C  0.62559473  0.81324742  0.42162976    -0.08500
C2163       C  0.65799425  0.83114659  0.40727679     0.30300
C2164       C  0.65800036  0.83826807  0.37520402    -0.20500
C2165       C  0.62636062  0.82621254  0.35672224    -0.08500
C2166       C  0.59409061  0.80825199  0.37139469     0.30300
F2167       F  0.56377160  0.79398065  0.35486883    -0.19100
H2168       H  0.56856505  0.78785413  0.41364889     0.18700
H2169       H  0.68293794  0.85305740  0.36491829     0.18700
F2170       F  0.68962033  0.84141848  0.42411450    -0.19100
C2171       C  0.66184338  0.79974376  0.09714706    -0.20500
C2172       C  0.63133356  0.81363065  0.07839610    -0.08500
C2173       C  0.60009362  0.83416705  0.09248193     0.30300
C2174       C  0.59914341  0.83973114  0.12464772    -0.20500
C2175       C  0.62888237  0.82434840  0.14353040    -0.08500
C2176       C  0.66041894  0.80438355  0.12931248     0.30300
F2177       F  0.68878636  0.78724635  0.14655055    -0.19100
H2178       H  0.68561182  0.78256181  0.08718626     0.18700
H2179       H  0.57491012  0.85594886  0.13478396     0.18700
F2180       F  0.56986874  0.84774368  0.07532464    -0.19100
C2181       C  0.58458736  0.69650367  0.40262068    -0.20500
C2182       C  0.61449869  0.68255927  0.42184216    -0.08500
C2183       C  0.64660904  0.66283988  0.40814238     0.30300
C2184       C  0.64899561  0.65841033  0.37587302    -0.20500
C2185       C  0.61991437  0.67422795  0.35658615    -0.08500
C2186       C  0.58753336  0.69321689  0.37046022     0.30300
F2187       F  0.55951773  0.71048403  0.35297098    -0.19100
H2188       H  0.56000867  0.71272447  0.41229772     0.18700
H2189       H  0.67374472  0.64271499  0.36599874     0.18700
F2190       F  0.67625928  0.64894003  0.42578617    -0.19100
C2191       C  0.59776392  0.71454786  0.10051603    -0.20500
C2192       C  0.61242087  0.68628118  0.07943090    -0.08500
C2193       C  0.62851449  0.65085188  0.09061552     0.30300
C2194       C  0.63202053  0.64504325  0.12270674    -0.20500
C2195       C  0.61961882  0.67468056  0.14360775    -0.08500
C2196       C  0.60131221  0.70883933  0.13234185     0.30300
F2197       F  0.58766510  0.73696121  0.15222931    -0.19100
H2198       H  0.58491084  0.74198281  0.09225946     0.18700
H2199       H  0.64358415  0.61726925  0.13139524     0.18700
F2200       F  0.63920147  0.62165980  0.07062011    -0.19100
O2201       O  0.59485435  0.79235167  0.53467915    -0.72100
O2202       O  0.58500424  0.71189781  0.96668363    -0.73100
O2203       O  0.58429180  0.71160720  0.53398989    -0.61700
O2204       O  0.59382238  0.79283104  0.96773943    -0.70100
O2205       O  0.65797568  0.78412795  0.96512117    -0.69700
O2206       O  0.64863516  0.70323607  0.53415379    -0.60900
O2207       O  0.64908947  0.70257857  0.96665880    -0.73500
O2208       O  0.65911494  0.78450074  0.53296944    -0.72200
Cu2209     Cu  0.58739689  0.75238745  0.00077718     1.04600
Cu2210     Cu  0.65597504  0.74333195  0.49970118     1.04300
C2211       C  0.62845830  0.79793378  0.54645329     0.94100
C2212       C  0.61597709  0.69780174  0.95398274     0.93200
C2213       C  0.61504747  0.69836844  0.54678144     0.85400
C2214       C  0.62635848  0.79793495  0.95373475     0.91600
O2215       O  0.53173388  0.54013915  0.96424318    -0.72100
O2216       O  0.53799454  0.95675383  0.53062199    -0.73100
O2217       O  0.53007539  0.95791126  0.96378330    -0.61700
O2218       O  0.54029632  0.53842176  0.53161134    -0.70100
O2219       O  0.72580819  0.54064214  0.53666455    -0.69700
O2220       O  0.71557011  0.96009052  0.96850002    -0.60900
O2221       O  0.72350961  0.95812973  0.53558629    -0.73500
O2222       O  0.71729655  0.54163915  0.96952920    -0.72200
Cu2223     Cu  0.53719261  0.49829041  0.99736282     1.04600
Cu2224     Cu  0.71835460  0.50019239  0.00282431     1.04300
C2225       C  0.49821850  0.55077304  0.95438190     0.94100
C2226       C  0.50689876  0.94709937  0.54535356     0.93200
C2227       C  0.49626880  0.94938030  0.95359940     0.85400
C2228       C  0.50976677  0.54927507  0.54660501     0.91600
C2229       C  0.53875481  0.62497398  0.75043463     0.30800
C2230       C  0.70901759  0.62567073  0.74919290     0.30800
C2231       C  0.51821539  0.60422038  0.77785329    -0.05400
C2232       C  0.51927202  0.66634856  0.75013261    -0.06200
C2233       C  0.52019235  0.60434070  0.72260043    -0.06000
C2234       C  0.72772175  0.60472007  0.77731606    -0.05400
C2235       C  0.72878940  0.66678515  0.74951808    -0.06200
C2236       C  0.72968062  0.60493040  0.72146025    -0.06000
C2237       C  0.71498316  0.59115582  0.80586124    -0.31400
N2238       N  0.49634825  0.58360269  0.82403307     0.15100
C2239       C  0.52897121  0.58994218  0.80650775    -0.31400
H2240       H  0.55852856  0.58704619  0.81470641     0.17000
C2241       C  0.71726006  0.70624145  0.74920090    -0.30400
N2242       N  0.49971469  0.72955393  0.74962478     0.13800
C2243       C  0.53158808  0.70540947  0.75019194    -0.30400
C2244       C  0.71995475  0.59134539  0.69221594    -0.30700
N2245       N  0.50333792  0.58321278  0.67598715     0.14300
H2246       H  0.69095047  0.58968930  0.68270429     0.16900
C2247       C  0.53392694  0.58970017  0.69486185    -0.30700
H2248       H  0.56419390  0.58762233  0.68779706     0.16900
H2249       H  0.56152519  0.71533856  0.75060872     0.16900
H2250       H  0.68499313  0.59041945  0.81363105     0.17000
H2251       H  0.68751653  0.71694675  0.74867042     0.16900
C2252       C  0.54131976  0.87551938  0.75021746     0.30800
C2253       C  0.71155839  0.87635610  0.74924225     0.30800
C2254       C  0.52266793  0.89636208  0.72231480    -0.05400
C2255       C  0.52139950  0.83444350  0.75005433    -0.06200
C2256       C  0.52093611  0.89661714  0.77774513    -0.06000
C2257       C  0.73217489  0.89688553  0.72161910    -0.05400
C2258       C  0.73090749  0.83495953  0.74958371    -0.06200
C2259       C  0.73041379  0.89700515  0.77708952    -0.06000
C2260       C  0.72194739  0.91000566  0.69245259    -0.31400
N2261       N  0.50497120  0.91589598  0.67523608     0.15100
C2262       C  0.53591562  0.90900380  0.69385006    -0.31400
H2263       H  0.56603256  0.90920170  0.68644691     0.17000
C2264       C  0.71849115  0.79592515  0.74931715    -0.30400
N2265       N  0.50033313  0.77172559  0.74961087     0.13800
C2266       C  0.53282863  0.79497614  0.75005331    -0.30400
C2267       C  0.71744359  0.91154024  0.80515353    -0.30700
N2268       N  0.49864490  0.91860286  0.82341910     0.14300
H2269       H  0.68737611  0.91313047  0.81274569     0.16900
C2270       C  0.53148901  0.91101697  0.80642877    -0.30700
H2271       H  0.56086522  0.91329850  0.81510599     0.16900
H2272       H  0.56255872  0.78421929  0.75034888     0.16900
H2273       H  0.69258568  0.91231181  0.68373523     0.17000
H2274       H  0.68853346  0.78604842  0.74893651     0.16900
C2275       C  0.58658328  0.87512821  0.74991250     0.30800
C2276       C  0.66637973  0.87585895  0.74936038     0.30800
C2277       C  0.60666593  0.85380180  0.72229786    -0.05400
C2278       C  0.60581774  0.91651901  0.74926607    -0.06200
C2279       C  0.60629610  0.85528025  0.77774862    -0.06000
C2280       C  0.64719656  0.85451000  0.72206413    -0.05400
C2281       C  0.64633485  0.91687839  0.74894544    -0.06200
C2282       C  0.64679041  0.85535437  0.77745523    -0.06000
C2283       C  0.65959596  0.83971517  0.69395189    -0.31400
N2284       N  0.62796978  0.83094956  0.67661167     0.16100
C2285       C  0.59552808  0.83800585  0.69421661    -0.31400
H2286       H  0.56591031  0.83457709  0.68630297     0.17000
C2287       C  0.65784085  0.95618486  0.74875305    -0.30400
N2288       N  0.62538525  0.97960645  0.74898808     0.13800
C2289       C  0.59345808  0.95564704  0.74930073    -0.30400
C2290       C  0.65854796  0.84058889  0.80570796    -0.30700
N2291       N  0.62649352  0.83354047  0.82366575     0.14300
H2292       H  0.68835521  0.83738752  0.81326792     0.16900
C2293       C  0.59449361  0.84130548  0.80626128    -0.30700
H2294       H  0.56469370  0.84018611  0.81442921     0.16900
H2295       H  0.56349621  0.96572860  0.74970236     0.16900
H2296       H  0.68943704  0.83878532  0.68572052     0.17000
H2297       H  0.68758527  0.96673550  0.74867083     0.16900
C2298       C  0.66375028  0.62618424  0.74933814     0.30800
C2299       C  0.58392332  0.62544552  0.75023217     0.30800
C2300       C  0.64383218  0.64651465  0.72159872    -0.05400
C2301       C  0.64451338  0.58481444  0.74953038    -0.06200
C2302       C  0.64368298  0.64688289  0.77740480    -0.06000
C2303       C  0.60320309  0.64662828  0.72248658    -0.05400
C2304       C  0.60400067  0.58445308  0.75001502    -0.06200
C2305       C  0.60315938  0.64626009  0.77754324    -0.06000
C2306       C  0.59051455  0.66162556  0.69470632    -0.31400
N2307       N  0.62195240  0.66832124  0.67633424     0.15100
C2308       C  0.65473749  0.66013751  0.69253749    -0.31400
H2309       H  0.68401786  0.66191241  0.68311254     0.17000
C2310       C  0.59247184  0.54515962  0.74987155    -0.30400
N2311       N  0.62491734  0.52174074  0.74928293     0.13800
C2312       C  0.65685095  0.54569495  0.74906252    -0.30400
C2313       C  0.59044938  0.66032512  0.80566740    -0.30700
N2314       N  0.62179190  0.66843033  0.82343243     0.14300
H2315       H  0.56049374  0.66099591  0.81358813     0.16900
C2316       C  0.65449793  0.66166311  0.80599377    -0.30700
H2317       H  0.68399236  0.66469119  0.81427689     0.16900
H2318       H  0.68681034  0.53561559  0.74853647     0.16900
H2319       H  0.56060545  0.66418344  0.68717986     0.17000
H2320       H  0.56272354  0.53461415  0.75010003     0.16900
C2321       C  0.52490187  0.90640341  0.87586034    -0.20500
C2322       C  0.49668198  0.92397056  0.85663144    -0.08500
C2323       C  0.71545882  0.94476515  0.87059359     0.30300
C2324       C  0.71338363  0.94888980  0.90280581    -0.20500
C2325       C  0.49287719  0.93350446  0.92180831    -0.08500
C2326       C  0.52321867  0.91130449  0.90809197     0.30300
F2327       F  0.55173587  0.89520279  0.92577971    -0.19100
H2328       H  0.54849234  0.88899595  0.86594804     0.18700
H2329       H  0.69007100  0.96675429  0.91268861     0.18700
F2330       F  0.68801584  0.96299083  0.85310984    -0.19100
C2331       C  0.54175630  0.94038184  0.59492734    -0.20500
C2332       C  0.50988672  0.92949256  0.57664884    -0.08500
C2333       C  0.72787114  0.91072762  0.59094966     0.30300
C2334       C  0.72674963  0.90569664  0.62317504    -0.20500
C2335       C  0.50713193  0.91998735  0.64186333    -0.08500
C2336       C  0.54023019  0.93656171  0.62713239     0.30300
F2337       F  0.57034354  0.95126986  0.64366468    -0.19100
H2338       H  0.56678938  0.95499197  0.58455021     0.18700
H2339       H  0.70170125  0.89108541  0.63345547     0.18700
F2340       F  0.69712352  0.89843348  0.57391133    -0.19100
C2341       C  0.71259256  0.55621712  0.90476814    -0.20500
C2342       C  0.49477974  0.56739930  0.92269372    -0.08500
C2343       C  0.52639860  0.58621525  0.90790930     0.30300
C2344       C  0.52643006  0.59197266  0.87572856    -0.20500
C2345       C  0.49536053  0.57830709  0.85740237    -0.08500
C2346       C  0.71301925  0.56088196  0.87253649     0.30300
F2347       F  0.68264757  0.54623669  0.85626624    -0.19100
H2348       H  0.68806596  0.54104456  0.91542518     0.18700
H2349       H  0.55114790  0.60686648  0.86519927     0.18700
F2350       F  0.55774481  0.59807958  0.92444273    -0.19100
C2351       C  0.53984650  0.54719462  0.59852339    -0.20500
C2352       C  0.51358698  0.56560405  0.57821615    -0.08500
C2353       C  0.73623765  0.59259328  0.59030884     0.30300
C2354       C  0.73298334  0.59840931  0.62242436    -0.20500
C2355       C  0.50696304  0.57726295  0.64296184    -0.08500
C2356       C  0.53647917  0.55266763  0.63057948     0.30300
F2357       F  0.56095939  0.53252966  0.64951564    -0.19100
H2358       H  0.56142888  0.52644884  0.58972671     0.18700
H2359       H  0.71207258  0.61969498  0.63133043     0.18700
F2360       F  0.71303836  0.61338353  0.57090678    -0.19100
C2361       C  0.59348652  0.80280961  0.90338849    -0.20500
C2362       C  0.62559512  0.81324707  0.92162997    -0.08500
C2363       C  0.65799532  0.83114456  0.90727666     0.30300
C2364       C  0.65800131  0.83826627  0.87520391    -0.20500
C2365       C  0.62636072  0.82621236  0.85672238    -0.08500
C2366       C  0.59409011  0.80825326  0.87139516     0.30300
F2367       F  0.56377029  0.79398304  0.85486968    -0.19100
H2368       H  0.56856416  0.78785648  0.91364953     0.18700
H2369       H  0.68293944  0.85305442  0.86491808     0.18700
F2370       F  0.68962234  0.84141442  0.92411400    -0.19100
C2371       C  0.66184346  0.79974421  0.59714680    -0.20500
C2372       C  0.63133382  0.81363168  0.57839587    -0.08500
C2373       C  0.60009416  0.83416852  0.59248167     0.30300
C2374       C  0.59914386  0.83973230  0.62464748    -0.20500
C2375       C  0.62888244  0.82434882  0.64353018    -0.08500
C2376       C  0.66041889  0.80438380  0.62931223     0.30300
F2377       F  0.68878602  0.78724611  0.64655029    -0.19100
H2378       H  0.68561160  0.78256209  0.58718607     0.18700
H2379       H  0.57491072  0.85595030  0.63478376     0.18700
F2380       F  0.56986958  0.84774578  0.57532435    -0.19100
C2381       C  0.58458748  0.69650398  0.90262028    -0.20500
C2382       C  0.61449820  0.68255867  0.92184201    -0.08500
C2383       C  0.64660816  0.66283838  0.90814248     0.30300
C2384       C  0.64899508  0.65840897  0.87587310    -0.20500
C2385       C  0.61991447  0.67422738  0.85658599    -0.08500
C2386       C  0.58753371  0.69321702  0.87045982     0.30300
F2387       F  0.55951882  0.71048497  0.85297026    -0.19100
H2388       H  0.56000918  0.71272559  0.91229711     0.18700
H2389       H  0.67374396  0.64271314  0.86599896     0.18700
F2390       F  0.67625769  0.64893747  0.92578656    -0.19100
C2391       C  0.59776436  0.71454861  0.60051633    -0.20500
C2392       C  0.61242155  0.68628224  0.57943107    -0.08500
C2393       C  0.62851555  0.65085304  0.59061546     0.30300
C2394       C  0.63202184  0.64504424  0.62270663    -0.20500
C2395       C  0.61961984  0.67468125  0.64360781    -0.08500
C2396       C  0.60131275  0.70883988  0.63234211     0.30300
F2397       F  0.58766505  0.73696127  0.65222973    -0.19100
H2398       H  0.58491088  0.74198353  0.59225989     0.18700
H2399       H  0.64358556  0.61727024  0.63139497     0.18700
F2400       F  0.63920227  0.62166108  0.57061986    -0.19100
O2401       O  0.84485387  0.29235166  0.03467908    -0.72100
O2402       O  0.83500347  0.21189808  0.46668353    -0.73100
O2403       O  0.83429173  0.21160721  0.03398955    -0.61700
O2404       O  0.84382193  0.29283132  0.46773928    -0.70100
O2405       O  0.90797520  0.28412797  0.46512094    -0.69700
O2406       O  0.89863510  0.20323629  0.03415346    -0.60900
O2407       O  0.89908864  0.20257864  0.46665870    -0.73500
O2408       O  0.90911447  0.28450097  0.03296932    -0.72200
Cu2409     Cu  0.83739632  0.25238778  0.50077706     1.04600
Cu2410     Cu  0.90597485  0.24333235  0.99970094     1.04300
C2411       C  0.87845781  0.29793386  0.04645323     0.94100
C2412       C  0.86597627  0.19780192  0.45398264     0.93200
C2413       C  0.86504741  0.19836856  0.04678112     0.85400
C2414       C  0.87635804  0.29793512  0.45373458     0.91600
O2415       O  0.78173221  0.04013868  0.46424296    -0.72100
O2416       O  0.78799417  0.45675422  0.03062217    -0.73100
O2417       O  0.78007527  0.45791067  0.46378359    -0.61700
O2418       O  0.79029655  0.03842309  0.03161116    -0.70100
O2419       O  0.97580751  0.04064206  0.03666436    -0.69700
O2420       O  0.96557008  0.46008933  0.46850056    -0.60900
O2421       O  0.97350897  0.45813035  0.03558603    -0.73500
O2422       O  0.96729533  0.04163769  0.46952891    -0.72200
Cu2423     Cu  0.78719171  0.99828997  0.49736246     1.04600
Cu2424     Cu  0.96835419  0.00019127  0.50282438     1.04300
C2425       C  0.74821669  0.05077199  0.45438165     0.94100
C2426       C  0.75689811  0.44710023  0.04535355     0.93200
C2427       C  0.74626868  0.44937954  0.45359977     0.85400
C2428       C  0.75976695  0.04927628  0.04660484     0.91600
C2429       C  0.78875432  0.12497447  0.25043462     0.30800
C2430       C  0.95901707  0.12567127  0.24919287     0.30800
C2431       C  0.76821487  0.10422086  0.27785329    -0.05400
C2432       C  0.76927158  0.16634911  0.25013271    -0.06200
C2433       C  0.77019184  0.10434126  0.22260037    -0.06000
C2434       C  0.97772118  0.10472056  0.27731601    -0.05400
C2435       C  0.97878891  0.16678566  0.24951812    -0.06200
C2436       C  0.97968001  0.10493097  0.22146016    -0.06000
C2437       C  0.96498260  0.09115607  0.30586110    -0.31400
N2438       N  0.74634748  0.08360264  0.32403290     0.15100
C2439       C  0.77897058  0.08994242  0.30650775    -0.31400
H2440       H  0.80852784  0.08704639  0.31470647     0.17000
C2441       C  0.96725966  0.20624198  0.24920123    -0.30400
N2442       N  0.74971433  0.22955450  0.24962534     0.13800
C2443       C  0.78158769  0.20541004  0.25019237    -0.30400
C2444       C  0.96995414  0.09134593  0.19221589    -0.30700
N2445       N  0.75333745  0.08321338  0.17598706     0.14300
H2446       H  0.94094971  0.08968973  0.18270421     0.16900
C2447       C  0.78392650  0.08970069  0.19486181    -0.30700
H2448       H  0.81419334  0.08762279  0.18779707     0.16900
H2449       H  0.81152481  0.21533908  0.25060924     0.16900
H2450       H  0.93499238  0.09041965  0.31363094     0.17000
H2451       H  0.93751606  0.21694734  0.24867086     0.16900
C2452       C  0.79131934  0.37552000  0.25021751     0.30800
C2453       C  0.96155793  0.37635660  0.24924245     0.30800
C2454       C  0.77266743  0.39636250  0.22231478    -0.05400
C2455       C  0.77139912  0.33444411  0.25005457    -0.06200
C2456       C  0.77093570  0.39661794  0.27774514    -0.06000
C2457       C  0.98217441  0.39688605  0.22161935    -0.05400
C2458       C  0.98090709  0.33496006  0.24958398    -0.06200
C2459       C  0.98041329  0.39700571  0.27708968    -0.06000
C2460       C  0.97194672  0.41000657  0.19245300    -0.31400
N2461       N  0.75497044  0.41589714  0.17523628     0.15100
C2462       C  0.78591497  0.40900461  0.19385010    -0.31400
H2463       H  0.81603189  0.40920262  0.18644691     0.17000
C2464       C  0.96849077  0.29592567  0.24931762    -0.30400
N2465       N  0.75033277  0.27172622  0.24961137     0.13800
C2466       C  0.78282827  0.29497675  0.25005366    -0.30400
C2467       C  0.96744301  0.41154072  0.30515367    -0.30700
N2468       N  0.74864442  0.41860344  0.32341920     0.14300
H2469       H  0.93737550  0.41313086  0.31274575     0.16900
C2470       C  0.78148859  0.41101778  0.30642883    -0.30700
H2471       H  0.81086471  0.41329936  0.31510604     0.16900
H2472       H  0.81255837  0.28421994  0.25034919     0.16900
H2473       H  0.94258497  0.41231285  0.18373582     0.17000
H2474       H  0.93853312  0.28604893  0.24893706     0.16900
C2475       C  0.83658284  0.37512880  0.24991249     0.30800
C2476       C  0.91637929  0.37585940  0.24936046     0.30800
C2477       C  0.85666550  0.35380241  0.22229783    -0.05400
C2478       C  0.85581734  0.41651954  0.24926606    -0.06200
C2479       C  0.85629562  0.35528085  0.27774862    -0.06000
C2480       C  0.89719615  0.35451049  0.22206416    -0.05400
C2481       C  0.89633444  0.41687885  0.24894549    -0.06200
C2482       C  0.89678990  0.35535488  0.27745527    -0.06000
C2483       C  0.90959560  0.33971577  0.19395189    -0.31400
N2484       N  0.87796942  0.33095039  0.17661157     0.16100
C2485       C  0.84552768  0.33800672  0.19421647    -0.31400
H2486       H  0.81590996  0.33457810  0.18630272     0.17000
C2487       C  0.90784055  0.45618527  0.24875313    -0.30400
N2488       N  0.87538502  0.47960691  0.24898812     0.13800
C2489       C  0.84345779  0.45564761  0.24930065    -0.30400
C2490       C  0.90854743  0.34058940  0.30570800    -0.30700
N2491       N  0.87649295  0.33354114  0.32366577     0.14300
H2492       H  0.93835462  0.33738796  0.31326798     0.16900
C2493       C  0.84449304  0.34130624  0.30626131    -0.30700
H2494       H  0.81469323  0.34018705  0.31442924     0.16900
H2495       H  0.81349591  0.46572922  0.24970223     0.16900
H2496       H  0.93943670  0.33878585  0.18572055     0.17000
H2497       H  0.93758498  0.46673582  0.24867104     0.16900
C2498       C  0.91374977  0.12618474  0.24933812     0.30800
C2499       C  0.83392284  0.12544598  0.25023213     0.30800
C2500       C  0.89383170  0.14651504  0.22159865    -0.05400
C2501       C  0.89451292  0.08481489  0.24953035    -0.06200
C2502       C  0.89368242  0.14688342  0.27740477    -0.06000
C2503       C  0.85320260  0.14662872  0.22248652    -0.05400
C2504       C  0.85400022  0.08445353  0.25001499    -0.06200
C2505       C  0.85315883  0.14626054  0.27754321    -0.06000
C2506       C  0.84051415  0.16162579  0.19470620    -0.31400
N2507       N  0.87195196  0.16832130  0.17633406     0.15100
C2508       C  0.90473704  0.16013774  0.19253738    -0.31400
H2509       H  0.93401747  0.16191273  0.18311246     0.17000
C2510       C  0.84247136  0.04516005  0.24987140    -0.30400
N2511       N  0.87491691  0.02174117  0.24928276     0.13800
C2512       C  0.90685049  0.04569538  0.24906248    -0.30400
C2513       C  0.84044871  0.16032545  0.30566742    -0.30700
N2514       N  0.87179127  0.16843081  0.32343239     0.14300
H2515       H  0.81049321  0.16099610  0.31358817     0.16900
C2516       C  0.90449731  0.16166363  0.30599374    -0.30700
H2517       H  0.93399172  0.16469170  0.31427687     0.16900
H2518       H  0.93680990  0.03561602  0.24853651     0.16900
H2519       H  0.81060494  0.16418365  0.18717973     0.17000
H2520       H  0.81272319  0.03461465  0.25009977     0.16900
C2521       C  0.77490188  0.40640390  0.37586031    -0.20500
C2522       C  0.74668157  0.42397067  0.35663161    -0.08500
C2523       C  0.96545785  0.44476397  0.37059418     0.30300
C2524       C  0.96338290  0.44888823  0.40280642    -0.20500
C2525       C  0.74287699  0.43350365  0.42180864    -0.08500
C2526       C  0.77321887  0.41130450  0.40809198     0.30300
F2527       F  0.80173664  0.39520334  0.42577947    -0.19100
H2528       H  0.79849275  0.38899699  0.36594771     0.18700
H2529       H  0.94006993  0.46675226  0.41268943     0.18700
F2530       F  0.93801431  0.46298929  0.35311076    -0.19100
C2531       C  0.79175541  0.44038244  0.09492741    -0.20500
C2532       C  0.75988558  0.42949366  0.07664897    -0.08500
C2533       C  0.97786943  0.41072951  0.09095009     0.30300
C2534       C  0.97674798  0.40569870  0.12317547    -0.20500
C2535       C  0.75713087  0.41998878  0.14186352    -0.08500
C2536       C  0.79022933  0.43656257  0.12713247     0.30300
F2537       F  0.82034300  0.45127032  0.14366464    -0.19100
H2538       H  0.81678875  0.45499201  0.08455018     0.18700
H2539       H  0.95169925  0.39108813  0.13345594     0.18700
F2540       F  0.94712136  0.39843610  0.07391196    -0.19100
C2541       C  0.96259149  0.05621609  0.40476767    -0.20500
C2542       C  0.74477791  0.06739840  0.42269351    -0.08500
C2543       C  0.77639668  0.08621489  0.40790938     0.30300
C2544       C  0.77642855  0.09197237  0.37572865    -0.20500
C2545       C  0.74535945  0.07830655  0.35740217    -0.08500
C2546       C  0.96301851  0.06088107  0.37253601     0.30300
F2547       F  0.93264727  0.04623549  0.35626543    -0.19100
H2548       H  0.93806496  0.04104327  0.41542454     0.18700
H2549       H  0.80114634  0.10686647  0.36519959     0.18700
F2550       F  0.80774262  0.09807951  0.42444301    -0.19100
C2551       C  0.78984629  0.04719543  0.09852337    -0.20500
C2552       C  0.76358703  0.06560511  0.07821604    -0.08500
C2553       C  0.98623727  0.09259348  0.09030871     0.30300
C2554       C  0.98298286  0.09840972  0.12242423    -0.20500
C2555       C  0.75696273  0.07726367  0.14296176    -0.08500
C2556       C  0.78647881  0.05266823  0.13057946     0.30300
F2557       F  0.81095896  0.03253022  0.14951567    -0.19100
H2558       H  0.81142870  0.02644953  0.08972668     0.18700
H2559       H  0.96207250  0.11969573  0.13133016     0.18700
F2560       F  0.96303850  0.11338414  0.07090656    -0.19100
C2561       C  0.84348603  0.30281010  0.40338837    -0.20500
C2562       C  0.87559469  0.31324737  0.42162986    -0.08500
C2563       C  0.90799488  0.33114502  0.40727664     0.30300
C2564       C  0.90800076  0.33826690  0.37520392    -0.20500
C2565       C  0.87636013  0.32621315  0.35672238    -0.08500
C2566       C  0.84408949  0.30825404  0.37139509     0.30300
F2567       F  0.81376966  0.29398390  0.35486955    -0.19100
H2568       H  0.81856368  0.28785687  0.41364938     0.18700
H2569       H  0.93293900  0.35305502  0.36491805     0.18700
F2570       F  0.93962196  0.34141467  0.42411402    -0.19100
C2571       C  0.91184288  0.29974433  0.09714685    -0.20500
C2572       C  0.88133340  0.31363188  0.07839580    -0.08500
C2573       C  0.85009394  0.33416916  0.09248151     0.30300
C2574       C  0.84914372  0.33973324  0.12464730    -0.20500
C2575       C  0.87888210  0.32434958  0.14353009    -0.08500
C2576       C  0.91041831  0.30438407  0.12931227     0.30300
F2577       F  0.93878507  0.28724607  0.14655052    -0.19100
H2578       H  0.93561096  0.28256183  0.08718617     0.18700
H2579       H  0.82491077  0.35595160  0.13478351     0.18700
F2580       F  0.81986952  0.34774661  0.07532414    -0.19100
C2581       C  0.83458667  0.19650424  0.40262019    -0.20500
C2582       C  0.86449739  0.18255892  0.42184192    -0.08500
C2583       C  0.89660745  0.16283876  0.40814241     0.30300
C2584       C  0.89899444  0.15840947  0.37587302    -0.20500
C2585       C  0.86991383  0.17422792  0.35658593    -0.08500
C2586       C  0.83753303  0.19321751  0.37045972     0.30300
F2587       F  0.80951819  0.21048551  0.35297013    -0.19100
H2588       H  0.81000829  0.21272574  0.41229705     0.18700
H2589       H  0.92374336  0.14271370  0.36599887     0.18700
F2590       F  0.92625703  0.14893798  0.42578652    -0.19100
C2591       C  0.84776430  0.21454877  0.10051606    -0.20500
C2592       C  0.86242148  0.18628239  0.07943081    -0.08500
C2593       C  0.87851539  0.15085314  0.09061524     0.30300
C2594       C  0.88202148  0.14504426  0.12270643    -0.20500
C2595       C  0.86961945  0.17468126  0.14360761    -0.08500
C2596       C  0.85131253  0.20883998  0.13234187     0.30300
F2597       F  0.83766498  0.23696149  0.15222949    -0.19100
H2598       H  0.83491101  0.24198372  0.09225958     0.18700
H2599       H  0.89358516  0.11727024  0.13139478     0.18700
F2600       F  0.88920225  0.12166123  0.07061965    -0.19100
O2601       O  0.84485384  0.29235107  0.53467900    -0.72100
O2602       O  0.83500454  0.21189852  0.96668349    -0.73100
O2603       O  0.83429065  0.21160664  0.53398951    -0.61700
O2604       O  0.84382191  0.29283191  0.96773926    -0.70100
O2605       O  0.90797530  0.28412944  0.96512093    -0.69700
O2606       O  0.89863395  0.20323508  0.53415346    -0.60900
O2607       O  0.89908986  0.20258002  0.96665851    -0.73500
O2608       O  0.90911433  0.28449965  0.53296932    -0.72200
Cu2609     Cu  0.83739689  0.25238829  0.00077706     1.04600
Cu2610     Cu  0.90597414  0.24333099  0.49970098     1.04300
C2611       C  0.87845780  0.29793298  0.54645315     0.94100
C2612       C  0.86597752  0.19780287  0.95398249     0.93200
C2613       C  0.86504620  0.19836759  0.54678106     0.85400
C2614       C  0.87635793  0.29793610  0.95373455     0.91600
O2615       O  0.78173300  0.04013942  0.96424291    -0.72100
O2616       O  0.78799546  0.45675388  0.53062220    -0.73100
O2617       O  0.78007493  0.45791137  0.96378361    -0.61700
O2618       O  0.79029576  0.03842262  0.53161116    -0.70100
O2619       O  0.97580742  0.04064247  0.53666433    -0.69700
O2620       O  0.96556945  0.46009109  0.96849995    -0.60900
O2621       O  0.97351069  0.45812921  0.53558647    -0.73500
O2622       O  0.96729553  0.04163748  0.96952901    -0.72200
Cu2623     Cu  0.78719251  0.99829057  0.99736240     1.04600
Cu2624     Cu  0.96835445  0.00019095  0.00282431     1.04300
C2625       C  0.74821742  0.05077281  0.95438177     0.94100
C2626       C  0.75689966  0.44709951  0.54535379     0.93200
C2627       C  0.74626835  0.44938080  0.95359950     0.85400
C2628       C  0.75976621  0.04927616  0.54660476     0.91600
C2629       C  0.78875408  0.12497394  0.75043452     0.30800
C2630       C  0.95901685  0.12567079  0.74919273     0.30800
C2631       C  0.76821466  0.10422067  0.77785330    -0.05400
C2632       C  0.76927139  0.16634853  0.75013231    -0.06200
C2633       C  0.77019153  0.10434043  0.72260040    -0.06000
C2634       C  0.97772089  0.10472035  0.77731607    -0.05400
C2635       C  0.97878878  0.16678518  0.74951766    -0.06200
C2636       C  0.97967982  0.10493013  0.72146023    -0.06000
C2637       C  0.96498224  0.09115603  0.80586122    -0.31400
N2638       N  0.74634742  0.08360320  0.82403309     0.15100
C2639       C  0.77897046  0.08994272  0.80650786    -0.31400
H2640       H  0.80852774  0.08704682  0.81470659     0.17000
C2641       C  0.96725966  0.20624154  0.74920023    -0.30400
N2642       N  0.74971440  0.22955397  0.74962415     0.13800
C2643       C  0.78158768  0.20540937  0.75019149    -0.30400
C2644       C  0.96995393  0.09134539  0.69221586    -0.30700
N2645       N  0.75333701  0.08321304  0.67598698     0.14300
H2646       H  0.94094962  0.08968947  0.68270415     0.16900
C2647       C  0.78392608  0.08970015  0.69486172    -0.30700
H2648       H  0.81419293  0.08762233  0.68779689     0.16900
H2649       H  0.81152475  0.21533833  0.75060831     0.16900
H2650       H  0.93499204  0.09041957  0.81363105     0.17000
H2651       H  0.93751616  0.21694700  0.74866965     0.16900
C2652       C  0.79132018  0.37551930  0.75021750     0.30800
C2653       C  0.96155883  0.37635613  0.74924222     0.30800
C2654       C  0.77266839  0.39636251  0.72231506    -0.05400
C2655       C  0.77139984  0.33444345  0.75005390    -0.06200
C2656       C  0.77093654  0.39661662  0.77774543    -0.06000
C2657       C  0.98217545  0.39688600  0.72161932    -0.05400
C2658       C  0.98090784  0.33495953  0.74958329    -0.06200
C2659       C  0.98041418  0.39700466  0.77708972    -0.06000
C2660       C  0.97194808  0.41000612  0.69245278    -0.31400
N2661       N  0.75497177  0.41589663  0.67523639     0.15100
C2662       C  0.78591619  0.40900434  0.69385037    -0.31400
H2663       H  0.81603303  0.40920217  0.68644725     0.17000
C2664       C  0.96849128  0.29592525  0.74931662    -0.30400
N2665       N  0.75033313  0.27172562  0.74961017     0.13800
C2666       C  0.78282878  0.29497601  0.75005266    -0.30400
C2667       C  0.96744383  0.41153986  0.80515364    -0.30700
N2668       N  0.74864518  0.41860252  0.82341935     0.14300
H2669       H  0.93737630  0.41313036  0.81274562     0.16900
C2670       C  0.78148938  0.41101643  0.80642915    -0.30700
H2671       H  0.81086547  0.41329791  0.81510647     0.16900
H2672       H  0.81255883  0.28421903  0.75034827     0.16900
H2673       H  0.94258643  0.41231214  0.68373534     0.17000
H2674       H  0.93853353  0.28604864  0.74893612     0.16900
C2675       C  0.83658370  0.37512815  0.74991246     0.30800
C2676       C  0.91638015  0.37585895  0.74936035     0.30800
C2677       C  0.85666637  0.35380208  0.72229768    -0.05400
C2678       C  0.85581815  0.41651901  0.74926631    -0.06200
C2679       C  0.85629651  0.35527980  0.77774837    -0.06000
C2680       C  0.89719697  0.35451029  0.72206395    -0.05400
C2681       C  0.89633526  0.41687837  0.74894571    -0.06200
C2682       C  0.89679081  0.35535404  0.77745508    -0.06000
C2683       C  0.90959644  0.33971555  0.69395169    -0.31400
N2684       N  0.87797021  0.33094991  0.67661146     0.16100
C2685       C  0.84552852  0.33800612  0.69421643    -0.31400
H2686       H  0.81591076  0.33457726  0.68630286     0.17000
C2687       C  0.90784135  0.45618482  0.74875346    -0.30400
N2688       N  0.87538580  0.47960648  0.74898850     0.13800
C2689       C  0.84345858  0.45564710  0.74930105    -0.30400
C2690       C  0.90854826  0.34058856  0.80570787    -0.30700
N2691       N  0.87649371  0.33353997  0.82366548     0.14300
H2692       H  0.93835542  0.33738744  0.81326806     0.16900
C2693       C  0.84449387  0.34130485  0.80626091    -0.30700
H2694       H  0.81469401  0.34018546  0.81442878     0.16900
H2695       H  0.81349671  0.46572874  0.74970259     0.16900
H2696       H  0.93943743  0.33878582  0.68572039     0.17000
H2697       H  0.93758574  0.46673540  0.74867122     0.16900
C2698       C  0.91374956  0.12618427  0.74933795     0.30800
C2699       C  0.83392261  0.12544548  0.75023210     0.30800
C2700       C  0.89383141  0.14651453  0.72159851    -0.05400
C2701       C  0.89451271  0.08481445  0.74953024    -0.06200
C2702       C  0.89368233  0.14688297  0.77740460    -0.06000
C2703       C  0.85320232  0.14662818  0.72248644    -0.05400
C2704       C  0.85400001  0.08445306  0.75001494    -0.06200
C2705       C  0.85315873  0.14626011  0.77754317    -0.06000
C2706       C  0.84051377  0.16162527  0.69470613    -0.31400
N2707       N  0.87195155  0.16832078  0.67633395     0.15100
C2708       C  0.90473667  0.16013719  0.69253720    -0.31400
H2709       H  0.93401708  0.16191214  0.68311225     0.17000
C2710       C  0.84247120  0.04515957  0.74987139    -0.30400
N2711       N  0.87491677  0.02174077  0.74928269     0.13800
C2712       C  0.90685039  0.04569499  0.74906228    -0.30400
C2713       C  0.84044891  0.16032534  0.80566735    -0.30700
N2714       N  0.87179155  0.16843077  0.82343218     0.14300
H2715       H  0.81049329  0.16099627  0.81358819     0.16900
C2716       C  0.90449749  0.16166353  0.80599341    -0.30700
H2717       H  0.93399191  0.16469189  0.81427631     0.16900
H2718       H  0.93680968  0.03561570  0.74853620     0.16900
H2719       H  0.81060459  0.16418315  0.68717969     0.17000
H2720       H  0.81272304  0.03461408  0.75009987     0.16900
C2721       C  0.77490181  0.40640336  0.87586074    -0.20500
C2722       C  0.74668211  0.42397046  0.85663166    -0.08500
C2723       C  0.96545880  0.44476501  0.87059353     0.30300
C2724       C  0.96338347  0.44889002  0.90280570    -0.20500
C2725       C  0.74287690  0.43350475  0.92180846    -0.08500
C2726       C  0.77321847  0.41130461  0.90809235     0.30300
F2727       F  0.80173563  0.39520311  0.92578030    -0.19100
H2728       H  0.79849237  0.38899575  0.86594850     0.18700
H2729       H  0.94007093  0.46675495  0.91268826     0.18700
F2730       F  0.93801608  0.46299080  0.85310959    -0.19100
C2731       C  0.79175702  0.44038240  0.59492769    -0.20500
C2732       C  0.75988755  0.42949286  0.57664914    -0.08500
C2733       C  0.97787213  0.41072761  0.59094995     0.30300
C2734       C  0.97675047  0.40569689  0.62317532    -0.20500
C2735       C  0.75713255  0.41998795  0.64186363    -0.08500
C2736       C  0.79023080  0.43656234  0.62713274     0.30300
F2737       F  0.82034414  0.45127041  0.64366509    -0.19100
H2738       H  0.81679006  0.45499255  0.58455061     0.18700
H2739       H  0.95170194  0.39108589  0.63345574     0.18700
F2740       F  0.94712447  0.39843346  0.57391169    -0.19100
C2741       C  0.96259154  0.05621566  0.90476784    -0.20500
C2742       C  0.74477831  0.06739934  0.92269369    -0.08500
C2743       C  0.77639668  0.08621646  0.90790954     0.30300
C2744       C  0.77642843  0.09197390  0.87572877    -0.20500
C2745       C  0.74535947  0.07830746  0.85740237    -0.08500
C2746       C  0.96301847  0.06088083  0.87253619     0.30300
F2747       F  0.93264742  0.04623492  0.85626557    -0.19100
H2748       H  0.93806534  0.04104244  0.91542466     0.18700
H2749       H  0.80114583  0.10686834  0.86519966     0.18700
F2750       F  0.80774229  0.09808191  0.92444319    -0.19100
C2751       C  0.78984535  0.04719489  0.59852329    -0.20500
C2752       C  0.76358638  0.06560498  0.57821595    -0.08500
C2753       C  0.98623709  0.09259369  0.59030874     0.30300
C2754       C  0.98298273  0.09840979  0.62242426    -0.20500
C2755       C  0.75696218  0.07726347  0.64296169    -0.08500
C2756       C  0.78647791  0.05266762  0.63057937     0.30300
F2757       F  0.81095769  0.03252915  0.64951558    -0.19100
H2758       H  0.81142754  0.02644876  0.58972656     0.18700
H2759       H  0.96207217  0.11969566  0.63133026     0.18700
F2760       F  0.96303808  0.11338424  0.57090668    -0.19100
C2761       C  0.84348637  0.30280930  0.90338806    -0.20500
C2762       C  0.87559439  0.31324797  0.92162974    -0.08500
C2763       C  0.90799411  0.33114664  0.90727669     0.30300
C2764       C  0.90800040  0.33826778  0.87520388    -0.20500
C2765       C  0.87636062  0.32621241  0.85672213    -0.08500
C2766       C  0.84409025  0.30825263  0.87139471     0.30300
F2767       F  0.81377103  0.29398156  0.85486900    -0.19100
H2768       H  0.81856430  0.28785558  0.91364903     0.18700
H2769       H  0.93293824  0.35305676  0.86491810     0.18700
F2770       F  0.93962022  0.34141828  0.92411442    -0.19100
C2771       C  0.91184373  0.29974495  0.59714640    -0.20500
C2772       C  0.88133344  0.31363128  0.57839564    -0.08500
C2773       C  0.85009343  0.33416739  0.59248165     0.30300
C2774       C  0.84914343  0.33973150  0.62464745    -0.20500
C2775       C  0.87888274  0.32434905  0.64352996    -0.08500
C2776       C  0.91041949  0.30438472  0.62931184     0.30300
F2777       F  0.93878728  0.28724791  0.64654973    -0.19100
H2778       H  0.93561228  0.28256342  0.58718548     0.18700
H2779       H  0.82491007  0.35594889  0.63478377     0.18700
F2780       F  0.81986824  0.34774372  0.57532458    -0.19100
C2781       C  0.83458785  0.19650495  0.90262002    -0.20500
C2782       C  0.86449871  0.18255992  0.92184170    -0.08500
C2783       C  0.89660877  0.16283986  0.90814207     0.30300
C2784       C  0.89899538  0.15841014  0.87587270    -0.20500
C2785       C  0.86991451  0.17422823  0.85658569    -0.08500
C2786       C  0.83753383  0.19321790  0.87045957     0.30300
F2787       F  0.80951871  0.21048554  0.85297007    -0.19100
H2788       H  0.81000938  0.21272645  0.91229697     0.18700
H2789       H  0.92374421  0.14271422  0.86599850     0.18700
F2790       F  0.92625848  0.14893923  0.92578607    -0.19100
C2791       C  0.84776320  0.21454783  0.60051595    -0.20500
C2792       C  0.86242019  0.18628131  0.57943071    -0.08500
C2793       C  0.87851424  0.15085214  0.59061518     0.30300
C2794       C  0.88202062  0.14504342  0.62270638    -0.20500
C2795       C  0.86961884  0.17468061  0.64360750    -0.08500
C2796       C  0.85131182  0.20883925  0.63234174     0.30300
F2797       F  0.83766461  0.23696099  0.65222930    -0.19100
H2798       H  0.83490994  0.24198276  0.59225950     0.18700
H2799       H  0.89358441  0.11726955  0.63139476     0.18700
F2800       F  0.88920127  0.12166020  0.57061965    -0.19100
O2801       O  0.84485430  0.79235102  0.03467923    -0.72100
O2802       O  0.83500425  0.71189758  0.46668375    -0.73100
O2803       O  0.83429166  0.71160657  0.03398951    -0.61700
O2804       O  0.84382211  0.79283088  0.46773910    -0.70100
O2805       O  0.90797547  0.78412813  0.46512089    -0.69700
O2806       O  0.89863501  0.70323540  0.03415362    -0.60900
O2807       O  0.89908950  0.70257859  0.46665881    -0.73500
O2808       O  0.90911488  0.78450012  0.03296961    -0.72200
Cu2809     Cu  0.83739690  0.75238751  0.50077710     1.04600
Cu2810     Cu  0.90597497  0.74333146  0.99970116     1.04300
C2811       C  0.87845820  0.79793309  0.04645347     0.94100
C2812       C  0.86597712  0.69780162  0.45398281     0.93200
C2813       C  0.86504724  0.69836771  0.04678113     0.85400
C2814       C  0.87635819  0.79793491  0.45373444     0.91600
O2815       O  0.78173299  0.54013855  0.46424299    -0.72100
O2816       O  0.78799516  0.95675435  0.03062187    -0.73100
O2817       O  0.78007446  0.95791071  0.46378343    -0.61700
O2818       O  0.79029664  0.53842279  0.03161160    -0.70100
O2819       O  0.97580777  0.54064299  0.03666443    -0.69700
O2820       O  0.96556946  0.96009008  0.46850025    -0.60900
O2821       O  0.97350993  0.95812936  0.03558606    -0.73500
O2822       O  0.96729596  0.54163705  0.46952916    -0.72200
Cu2823     Cu  0.78719267  0.49828992  0.49736262     1.04600
Cu2824     Cu  0.96835502  0.50019064  0.50282463     1.04300
C2825       C  0.74821738  0.55077178  0.45438178     0.94100
C2826       C  0.75689934  0.94709993  0.04535340     0.93200
C2827       C  0.74626787  0.94937954  0.45359965     0.85400
C2828       C  0.75976707  0.54927655  0.04660507     0.91600
C2829       C  0.78875396  0.62497431  0.25043479     0.30800
C2830       C  0.95901676  0.62567109  0.24919294     0.30800
C2831       C  0.76821454  0.60422092  0.27785354    -0.05400
C2832       C  0.76927125  0.66634888  0.25013268    -0.06200
C2833       C  0.77019146  0.60434090  0.22260065    -0.06000
C2834       C  0.97772079  0.60472057  0.27731625    -0.05400
C2835       C  0.97878867  0.66678547  0.24951796    -0.06200
C2836       C  0.97967978  0.60493052  0.22146038    -0.06000
C2837       C  0.96498217  0.59115583  0.30586133    -0.31400
N2838       N  0.74634733  0.58360253  0.32403309     0.15100
C2839       C  0.77897031  0.58994240  0.30650790    -0.31400
H2840       H  0.80852769  0.58704629  0.31470660     0.17000
C2841       C  0.96725952  0.70624182  0.24920079    -0.30400
N2842       N  0.74971416  0.72955428  0.24962495     0.13800
C2843       C  0.78158747  0.70540974  0.25019214    -0.30400
C2844       C  0.96995401  0.59134561  0.19221605    -0.30700
N2845       N  0.75333715  0.58321311  0.17598731     0.14300
H2846       H  0.94094960  0.58968952  0.18270430     0.16900
C2847       C  0.78392609  0.58970039  0.19486210    -0.30700
H2848       H  0.81419305  0.58762256  0.18779734     0.16900
H2849       H  0.81152457  0.71533870  0.25060905     0.16900
H2850       H  0.93499209  0.59041924  0.31363120     0.17000
H2851       H  0.93751600  0.71694724  0.24867033     0.16900
C2852       C  0.79131971  0.87551972  0.25021758     0.30800
C2853       C  0.96155834  0.87635643  0.24924227     0.30800
C2854       C  0.77266797  0.89636238  0.22231484    -0.05400
C2855       C  0.77139939  0.83444386  0.25005446    -0.06200
C2856       C  0.77093598  0.89661757  0.27774523    -0.06000
C2857       C  0.98217495  0.89688581  0.22161916    -0.05400
C2858       C  0.98090737  0.83495984  0.24958373    -0.06200
C2859       C  0.98041372  0.89700539  0.27708958    -0.06000
C2860       C  0.97194748  0.91000570  0.19245255    -0.31400
N2861       N  0.75497133  0.91589628  0.17523606     0.15100
C2862       C  0.78591577  0.90900406  0.19385008    -0.31400
H2863       H  0.81603259  0.90920197  0.18644702     0.17000
C2864       C  0.96849092  0.79592550  0.24931719    -0.30400
N2865       N  0.75033278  0.77172599  0.24961110     0.13800
C2866       C  0.78282839  0.79497642  0.25005357    -0.30400
C2867       C  0.96744336  0.91154018  0.30515362    -0.30700
N2868       N  0.74864449  0.91860273  0.32341933     0.14300
H2869       H  0.93737587  0.91313050  0.31274561     0.16900
C2870       C  0.78148870  0.91101694  0.30642910    -0.30700
H2871       H  0.81086481  0.91329817  0.31510654     0.16900
H2872       H  0.81255840  0.78421952  0.25034921     0.16900
H2873       H  0.94258588  0.91231174  0.18373517     0.17000
H2874       H  0.93853323  0.78604883  0.24893655     0.16900
C2875       C  0.83658324  0.87512858  0.24991259     0.30800
C2876       C  0.91637969  0.87585931  0.24936040     0.30800
C2877       C  0.85666588  0.85380211  0.22229798    -0.05400
C2878       C  0.85581772  0.91651939  0.24926607    -0.06200
C2879       C  0.85629608  0.85528068  0.27774869    -0.06000
C2880       C  0.89719650  0.85451024  0.22206425    -0.05400
C2881       C  0.89633483  0.91687876  0.24894537    -0.06200
C2882       C  0.89679039  0.85535485  0.27745531    -0.06000
C2883       C  0.90959596  0.83971517  0.19395211    -0.31400
N2884       N  0.87796972  0.83094952  0.17661191     0.16100
C2885       C  0.84552808  0.83800602  0.19421680    -0.31400
H2886       H  0.81591025  0.83457724  0.18630313     0.17000
C2887       C  0.90784089  0.95618522  0.24875305    -0.30400
N2888       N  0.87538533  0.97960686  0.24898814     0.13800
C2889       C  0.84345814  0.95564747  0.24930081    -0.30400
C2890       C  0.90854799  0.84058912  0.30570794    -0.30700
N2891       N  0.87649355  0.83354050  0.32366564     0.14300
H2892       H  0.93835522  0.83738768  0.31326796     0.16900
C2893       C  0.84449360  0.84130563  0.30626127    -0.30700
H2894       H  0.81469372  0.84018609  0.31442930     0.16900
H2895       H  0.81349622  0.96572904  0.24970253     0.16900
H2896       H  0.93943700  0.83878525  0.18572083     0.17000
H2897       H  0.93758531  0.96673582  0.24867091     0.16900
C2898       C  0.91374945  0.62618465  0.24933814     0.30800
C2899       C  0.83392250  0.62544590  0.25023226     0.30800
C2900       C  0.89383131  0.64651492  0.22159869    -0.05400
C2901       C  0.89451258  0.58481486  0.24953043    -0.06200
C2902       C  0.89368219  0.64688335  0.27740477    -0.06000
C2903       C  0.85320221  0.64662857  0.22248659    -0.05400
C2904       C  0.85399989  0.58445349  0.25001513    -0.06200
C2905       C  0.85315861  0.64626051  0.27754329    -0.06000
C2906       C  0.84051367  0.66162543  0.19470619    -0.31400
N2907       N  0.87195153  0.66832078  0.17633402     0.15100
C2908       C  0.90473661  0.66013740  0.19253736    -0.31400
H2909       H  0.93401702  0.66191230  0.18311241     0.17000
C2910       C  0.84247106  0.54516003  0.24987161    -0.30400
N2911       N  0.87491662  0.52174121  0.24928292     0.13800
C2912       C  0.90685019  0.54569540  0.24906256    -0.30400
C2913       C  0.84044871  0.66032533  0.30566754    -0.30700
N2914       N  0.87179127  0.66843061  0.32343248     0.14300
H2915       H  0.81049308  0.66099589  0.31358837     0.16900
C2916       C  0.90449732  0.66166354  0.30599371    -0.30700
H2917       H  0.93399160  0.66469167  0.31427665     0.16900
H2918       H  0.93680960  0.53561607  0.24853643     0.16900
H2919       H  0.81060459  0.66418327  0.18717973     0.17000
H2920       H  0.81272289  0.53461460  0.25010003     0.16900
C2921       C  0.77490108  0.90640245  0.37586065    -0.20500
C2922       C  0.74668133  0.92396989  0.35663173    -0.08500
C2923       C  0.96545820  0.94476421  0.37059388     0.30300
C2924       C  0.96338296  0.94888890  0.40280606    -0.20500
C2925       C  0.74287621  0.93350334  0.42180865    -0.08500
C2926       C  0.77321774  0.91130336  0.40809233     0.30300
F2927       F  0.80173499  0.89520182  0.42578015    -0.19100
H2928       H  0.79849156  0.88899508  0.36594831     0.18700
H2929       H  0.94007030  0.96675363  0.41268882     0.18700
F2930       F  0.93801527  0.96298993  0.35311011    -0.19100
C2931       C  0.79175679  0.94038210  0.09492731    -0.20500
C2932       C  0.75988712  0.92949313  0.07664874    -0.08500
C2933       C  0.97787114  0.91072779  0.09094966     0.30300
C2934       C  0.97674965  0.90569685  0.12317503    -0.20500
C2935       C  0.75713210  0.91998787  0.14186329    -0.08500
C2936       C  0.79023053  0.93656195  0.12713239     0.30300
F2937       F  0.82034403  0.95126977  0.14366471    -0.19100
H2938       H  0.81678998  0.95499196  0.08455025     0.18700
H2939       H  0.95170104  0.89108600  0.13345545     0.18700
F2940       F  0.94712323  0.89843404  0.07391151    -0.19100
C2941       C  0.96259188  0.55621464  0.40476772    -0.20500
C2942       C  0.74477829  0.56739805  0.42269361    -0.08500
C2943       C  0.77639665  0.58621523  0.40790949     0.30300
C2944       C  0.77642832  0.59197288  0.37572877    -0.20500
C2945       C  0.74535948  0.57830631  0.35740230    -0.08500
C2946       C  0.96301874  0.56087987  0.37253607     0.30300
F2947       F  0.93264785  0.54623371  0.35626539    -0.19100
H2948       H  0.93806567  0.54104123  0.41542456     0.18700
H2949       H  0.80114564  0.60686769  0.36519969     0.18700
F2950       F  0.80774219  0.59808070  0.42444322    -0.19100
C2951       C  0.78984631  0.54719555  0.09852361    -0.20500
C2952       C  0.76358715  0.56560532  0.07821628    -0.08500
C2953       C  0.98623712  0.59259364  0.09030894     0.30300
C2954       C  0.98298260  0.59840956  0.12242447    -0.20500
C2955       C  0.75696257  0.57726365  0.14296200    -0.08500
C2956       C  0.78647873  0.55266829  0.13057970     0.30300
F2957       F  0.81095879  0.53253018  0.14951592    -0.19100
H2958       H  0.81142869  0.52644960  0.08972694     0.18700
H2959       H  0.96207162  0.61969510  0.13133050     0.18700
F2960       F  0.96303778  0.61338380  0.07090685    -0.19100
C2961       C  0.84348692  0.80280774  0.40338784    -0.20500
C2962       C  0.87559475  0.81324681  0.42162964    -0.08500
C2963       C  0.90799424  0.83114621  0.40727681     0.30300
C2964       C  0.90800044  0.83826778  0.37520402    -0.20500
C2965       C  0.87636072  0.82621223  0.35672219    -0.08500
C2966       C  0.84409074  0.80825150  0.37139453     0.30300
F2967       F  0.81377183  0.79398006  0.35486860    -0.19100
H2968       H  0.81856510  0.78785347  0.41364864     0.18700
H2969       H  0.93293797  0.85305722  0.36491837     0.18700
F2970       F  0.93962020  0.84141817  0.42411467    -0.19100
C2971       C  0.91184337  0.79974393  0.09714710    -0.20500
C2972       C  0.88133360  0.81363098  0.07839612    -0.08500
C2973       C  0.85009369  0.83416742  0.09248196     0.30300
C2974       C  0.84914340  0.83973141  0.12464776    -0.20500
C2975       C  0.87888228  0.82434846  0.14353045    -0.08500
C2976       C  0.91041877  0.80438352  0.12931255     0.30300
F2977       F  0.93878597  0.78724608  0.14655069    -0.19100
H2978       H  0.93561177  0.78256204  0.08718632     0.18700
H2979       H  0.82491018  0.85594919  0.13478399     0.18700
F2980       F  0.81986897  0.84774427  0.07532463    -0.19100
C2981       C  0.83458698  0.69650315  0.40262057    -0.20500
C2982       C  0.86449821  0.68255858  0.42184208    -0.08500
C2983       C  0.89660853  0.66283914  0.40814231     0.30300
C2984       C  0.89899518  0.65840980  0.37587294    -0.20500
C2985       C  0.86991410  0.67422764  0.35658604    -0.08500
C2986       C  0.83753308  0.69321654  0.37046010     0.30300
F2987       F  0.80951760  0.71048379  0.35297077    -0.19100
H2988       H  0.81000823  0.71272401  0.41229760     0.18700
H2989       H  0.92374429  0.64271441  0.36599866     0.18700
F2990       F  0.92625857  0.64893891  0.42578615    -0.19100
C2991       C  0.84776437  0.71454822  0.10051597    -0.20500
C2992       C  0.86242111  0.68628156  0.07943078    -0.08500
C2993       C  0.87851447  0.65085210  0.09061530     0.30300
C2994       C  0.88202051  0.64504328  0.12270649    -0.20500
C2995       C  0.86961897  0.67468056  0.14360757    -0.08500
C2996       C  0.85131257  0.70883949  0.13234176     0.30300
F2997       F  0.83766559  0.73696129  0.15222932    -0.19100
H2998       H  0.83491144  0.74198333  0.09225943     0.18700
H2999       H  0.89358391  0.61726918  0.13139490     0.18700
F3000       F  0.88920116  0.62166002  0.07061982    -0.19100
O3001       O  0.84485418  0.79235104  0.53467896    -0.72100
O3002       O  0.83500447  0.71189821  0.96668352    -0.73100
O3003       O  0.83429151  0.71160660  0.53398975    -0.61700
O3004       O  0.84382246  0.79283156  0.96773943    -0.70100
O3005       O  0.90797578  0.78412852  0.96512111    -0.69700
O3006       O  0.89863482  0.70323535  0.53415363    -0.60900
O3007       O  0.89908972  0.70257915  0.96665879    -0.73500
O3008       O  0.90911471  0.78449987  0.53296930    -0.72200
Cu3009     Cu  0.83739708  0.75238782  0.00077714     1.04600
Cu3010     Cu  0.90597476  0.74333114  0.49970102     1.04300
C3011       C  0.87845812  0.79793306  0.54645314     0.94100
C3012       C  0.86597739  0.69780229  0.95398266     0.93200
C3013       C  0.86504715  0.69836787  0.54678134     0.85400
C3014       C  0.87635853  0.79793546  0.95373470     0.91600
O3015       O  0.78173362  0.54013933  0.96424322    -0.72100
O3016       O  0.78799447  0.95675386  0.53062195    -0.73100
O3017       O  0.78007535  0.95791141  0.96378333    -0.61700
O3018       O  0.79029684  0.53842257  0.53161131    -0.70100
O3019       O  0.97580839  0.54064185  0.53666456    -0.69700
O3020       O  0.96556983  0.96008982  0.96850015    -0.60900
O3021       O  0.97350980  0.95812975  0.53558624    -0.73500
O3022       O  0.96729634  0.54163883  0.96952910    -0.72200
Cu3023     Cu  0.78719237  0.49829040  0.99736275     1.04600
Cu3024     Cu  0.96835432  0.50019211  0.00282428     1.04300
C3025       C  0.74821823  0.55077317  0.95438197     0.94100
C3026       C  0.75689867  0.94709959  0.54535356     0.93200
C3027       C  0.74626881  0.94938038  0.95359939     0.85400
C3028       C  0.75976727  0.54927596  0.54660495     0.91600
C3029       C  0.78875485  0.62497403  0.75043468     0.30800
C3030       C  0.95901758  0.62567083  0.74919291     0.30800
C3031       C  0.76821546  0.60422044  0.77785333    -0.05400
C3032       C  0.76927206  0.66634862  0.75013270    -0.06200
C3033       C  0.77019237  0.60434076  0.72260046    -0.06000
C3034       C  0.97772167  0.60472008  0.77731604    -0.05400
C3035       C  0.97878939  0.66678524  0.74951814    -0.06200
C3036       C  0.97968062  0.60493060  0.72146020    -0.06000
C3037       C  0.96498304  0.59115584  0.80586122    -0.31400
N3038       N  0.74634828  0.58360287  0.82403312     0.15100
C3039       C  0.77897122  0.58994242  0.80650784    -0.31400
H3040       H  0.80852866  0.58704652  0.81470655     0.17000
C3041       C  0.96726001  0.70624153  0.74920110    -0.30400
N3042       N  0.74971474  0.72955397  0.74962487     0.13800
C3043       C  0.78158809  0.70540954  0.75019209    -0.30400
C3044       C  0.96995479  0.59134567  0.69221587    -0.30700
N3045       N  0.75333804  0.58321292  0.67598714     0.14300
H3046       H  0.94095050  0.58968958  0.68270419     0.16900
C3047       C  0.78392706  0.58970036  0.69486186    -0.30700
H3048       H  0.81419390  0.58762273  0.68779709     0.16900
H3049       H  0.81152530  0.71533864  0.75060894     0.16900
H3050       H  0.93499296  0.59041952  0.81363102     0.17000
H3051       H  0.93751649  0.71694674  0.74867071     0.16900
C3052       C  0.79131977  0.87551942  0.75021739     0.30800
C3053       C  0.96155832  0.87635625  0.74924225     0.30800
C3054       C  0.77266789  0.89636207  0.72231474    -0.05400
C3055       C  0.77139953  0.83444356  0.75005431    -0.06200
C3056       C  0.77093616  0.89661723  0.77774507    -0.06000
C3057       C  0.98217488  0.89688557  0.72161907    -0.05400
C3058       C  0.98090744  0.83495969  0.74958379    -0.06200
C3059       C  0.98041367  0.89700542  0.77708949    -0.06000
C3060       C  0.97194740  0.91000576  0.69245258    -0.31400
N3061       N  0.75497114  0.91589609  0.67523607     0.15100
C3062       C  0.78591557  0.90900383  0.69385001    -0.31400
H3063       H  0.81603249  0.90920179  0.68644686     0.17000
C3064       C  0.96849109  0.79592529  0.74931734    -0.30400
N3065       N  0.75033316  0.77172568  0.74961087     0.13800
C3066       C  0.78282872  0.79497617  0.75005330    -0.30400
C3067       C  0.96744338  0.91154043  0.80515351    -0.30700
N3068       N  0.74864498  0.91860305  0.82341905     0.14300
H3069       H  0.93737597  0.91313056  0.81274566     0.16900
C3070       C  0.78148906  0.91101708  0.80642873    -0.30700
H3071       H  0.81086531  0.91329855  0.81510598     0.16900
H3072       H  0.81255868  0.78421938  0.75034885     0.16900
H3073       H  0.94258571  0.91231189  0.68373521     0.17000
H3074       H  0.93853344  0.78604854  0.74893676     0.16900
C3075       C  0.83658326  0.87512826  0.74991236     0.30800
C3076       C  0.91637968  0.87585904  0.74936034     0.30800
C3077       C  0.85666596  0.85380205  0.72229764    -0.05400
C3078       C  0.85581769  0.91651907  0.74926606    -0.06200
C3079       C  0.85629604  0.85528012  0.77774842    -0.06000
C3080       C  0.89719656  0.85451021  0.72206400    -0.05400
C3081       C  0.89633479  0.91687846  0.74894551    -0.06200
C3082       C  0.89679033  0.85535434  0.77745514    -0.06000
C3083       C  0.90959606  0.83971523  0.69395183    -0.31400
N3084       N  0.87796990  0.83094966  0.67661152     0.16100
C3085       C  0.84552817  0.83800605  0.69421638    -0.31400
H3086       H  0.81591045  0.83457725  0.68630269     0.17000
C3087       C  0.90784084  0.95618490  0.74875325    -0.30400
N3088       N  0.87538527  0.97960650  0.74898825     0.13800
C3089       C  0.84345807  0.95564711  0.74930077    -0.30400
C3090       C  0.90854782  0.84058892  0.80570792    -0.30700
N3091       N  0.87649331  0.83354050  0.82366565     0.14300
H3092       H  0.93835502  0.83738763  0.81326795     0.16900
C3093       C  0.84449348  0.84130542  0.80626108    -0.30700
H3094       H  0.81469351  0.84018613  0.81442897     0.16900
H3095       H  0.81349618  0.96572868  0.74970228     0.16900
H3096       H  0.93943712  0.83878528  0.68572060     0.17000
H3097       H  0.93758525  0.96673554  0.74867110     0.16900
C3098       C  0.91375030  0.62618431  0.74933817     0.30800
C3099       C  0.83392336  0.62544555  0.75023224     0.30800
C3100       C  0.89383215  0.64651471  0.72159877    -0.05400
C3101       C  0.89451347  0.58481447  0.74953038    -0.06200
C3102       C  0.89368299  0.64688292  0.77740486    -0.06000
C3103       C  0.85320308  0.64662835  0.72248666    -0.05400
C3104       C  0.85400077  0.58445312  0.75001505    -0.06200
C3105       C  0.85315942  0.64626006  0.77754335    -0.06000
C3106       C  0.84051451  0.66162572  0.69470643    -0.31400
N3107       N  0.87195235  0.66832145  0.67633434     0.15100
C3108       C  0.90473743  0.66013771  0.69253759    -0.31400
H3109       H  0.93401784  0.66191269  0.68311267     0.17000
C3110       C  0.84247190  0.54515967  0.74987158    -0.30400
N3111       N  0.87491743  0.52174076  0.74928293     0.13800
C3112       C  0.90685102  0.54569497  0.74906251    -0.30400
C3113       C  0.84044940  0.66032513  0.80566754    -0.30700
N3114       N  0.87179200  0.66843047  0.82343246     0.14300
H3115       H  0.81049387  0.66099601  0.81358827     0.16900
C3116       C  0.90449803  0.66166330  0.80599377    -0.30700
H3117       H  0.93399235  0.66469156  0.81427676     0.16900
H3118       H  0.93681044  0.53561557  0.74853646     0.16900
H3119       H  0.81060541  0.66418363  0.68717999     0.17000
H3120       H  0.81272372  0.53461424  0.75010012     0.16900
C3121       C  0.77490198  0.90640364  0.87586030    -0.20500
C3122       C  0.74668210  0.92397078  0.85663140    -0.08500
C3123       C  0.96545850  0.94476480  0.87059363     0.30300
C3124       C  0.96338324  0.94888925  0.90280586    -0.20500
C3125       C  0.74287725  0.93350449  0.92180830    -0.08500
C3126       C  0.77321882  0.91130463  0.90809193     0.30300
F3127       F  0.80173612  0.89520306  0.92577966    -0.19100
H3128       H  0.79849255  0.88899619  0.86594790     0.18700
H3129       H  0.94007051  0.96675373  0.91268866     0.18700
F3130       F  0.93801553  0.96299053  0.85310987    -0.19100
C3131       C  0.79175620  0.94038212  0.59492735    -0.20500
C3132       C  0.75988663  0.92949279  0.57664884    -0.08500
C3133       C  0.97787114  0.91072782  0.59094967     0.30300
C3134       C  0.97674959  0.90569691  0.62317504    -0.20500
C3135       C  0.75713186  0.91998754  0.64186332    -0.08500
C3136       C  0.79023010  0.93656198  0.62713240     0.30300
F3137       F  0.82034347  0.95127014  0.64366469    -0.19100
H3138       H  0.81678927  0.95499227  0.58455022     0.18700
H3139       H  0.95170107  0.89108579  0.63345549     0.18700
F3140       F  0.94712349  0.89843379  0.57391133    -0.19100
C3141       C  0.96259234  0.55621703  0.90476809    -0.20500
C3142       C  0.74477942  0.56739949  0.92269381    -0.08500
C3143       C  0.77639821  0.58621563  0.90790944     0.30300
C3144       C  0.77642978  0.59197298  0.87572868    -0.20500
C3145       C  0.74536041  0.57830722  0.85740241    -0.08500
C3146       C  0.96301909  0.56088191  0.87253642     0.30300
F3147       F  0.93264758  0.54623645  0.85626608    -0.19100
H3148       H  0.93806581  0.54104450  0.91542511     0.18700
H3149       H  0.80114755  0.60686689  0.86519941     0.18700
F3150       F  0.80774433  0.59808012  0.92444290    -0.19100
C3151       C  0.78984687  0.54719527  0.59852334    -0.20500
C3152       C  0.76358744  0.56560487  0.57821610    -0.08500
C3153       C  0.98623808  0.59259329  0.59030873     0.30300
C3154       C  0.98298364  0.59840938  0.62242424    -0.20500
C3155       C  0.75696335  0.57726337  0.64296182    -0.08500
C3156       C  0.78647952  0.55266810  0.63057945     0.30300
F3157       F  0.81095988  0.53253024  0.64951560    -0.19100
H3158       H  0.81142929  0.52644953  0.58972660     0.18700
H3159       H  0.96207296  0.61969526  0.63133020     0.18700
F3160       F  0.96303917  0.61338382  0.57090656    -0.19100
C3161       C  0.84348625  0.80281041  0.90338856    -0.20500
C3162       C  0.87559510  0.81324751  0.92162989    -0.08500
C3163       C  0.90799536  0.83114476  0.90727649     0.30300
C3164       C  0.90800125  0.83826632  0.87520373    -0.20500
C3165       C  0.87636048  0.82621264  0.85672231    -0.08500
C3166       C  0.84408973  0.80825391  0.87139522     0.30300
F3167       F  0.81376966  0.79398393  0.85486990    -0.19100
H3168       H  0.81856378  0.78785763  0.91364972     0.18700
H3169       H  0.93293951  0.85305417  0.86491779     0.18700
F3170       F  0.93962255  0.84141442  0.92411372    -0.19100
C3171       C  0.91184352  0.79974412  0.59714664    -0.20500
C3172       C  0.88133373  0.81363123  0.57839568    -0.08500
C3173       C  0.85009403  0.83416800  0.59248151     0.30300
C3174       C  0.84914383  0.83973201  0.62464731    -0.20500
C3175       C  0.87888257  0.82434882  0.64353002    -0.08500
C3176       C  0.91041900  0.80438381  0.62931209     0.30300
F3177       F  0.93878623  0.78724640  0.64655022    -0.19100
H3178       H  0.93561179  0.78256207  0.58718590     0.18700
H3179       H  0.82491065  0.85594987  0.63478353     0.18700
F3180       F  0.81986922  0.84774490  0.57532429    -0.19100
C3181       C  0.83458779  0.69650440  0.90262021    -0.20500
C3182       C  0.86449861  0.68255930  0.92184194    -0.08500
C3183       C  0.89660870  0.66283921  0.90814242     0.30300
C3184       C  0.89899547  0.65840958  0.87587305    -0.20500
C3185       C  0.86991474  0.67422784  0.85658597    -0.08500
C3186       C  0.83753400  0.69321750  0.87045977     0.30300
F3187       F  0.80951901  0.71048532  0.85297023    -0.19100
H3188       H  0.81000934  0.71272591  0.91229706     0.18700
H3189       H  0.92374429  0.64271374  0.86599892     0.18700
F3190       F  0.92625844  0.64893868  0.92578650    -0.19100
C3191       C  0.84776388  0.71454819  0.60051623    -0.20500
C3192       C  0.86242127  0.68628185  0.57943105    -0.08500
C3193       C  0.87851554  0.65085284  0.59061561     0.30300
C3194       C  0.88202187  0.64504422  0.62270681    -0.20500
C3195       C  0.86961975  0.67468129  0.64360788    -0.08500
C3196       C  0.85131244  0.70883975  0.63234203     0.30300
F3197       F  0.83766470  0.73696129  0.65222952    -0.19100
H3198       H  0.83491020  0.74198298  0.59225966     0.18700
H3199       H  0.89358583  0.61727038  0.63139525     0.18700
F3200       F  0.88920282  0.62166100  0.57062010    -0.19100
loop_ 
_geom_bond_atom_site_label_1 
_geom_bond_atom_site_label_2 
_geom_bond_distance 
_geom_bond_site_symmetry_2 
_ccdc_geom_bond_type 
O1           C11   1.278       .  A
O1         Cu209   2.006       .  S
O2           C12   1.280       .  A
O2           Cu9   2.008       .  S
O3           C13   1.274       .  A
O3         Cu209   1.984       .  S
O4           C14   1.275       .  A
O4           Cu9   1.980       .  S
O5           C14   1.280       .  A
O5         Cu210   2.026       .  S
O6           C13   1.280       .  A
O6          Cu10   2.020   1_554  S
O7           C12   1.276       .  A
O7         Cu210   1.995       .  S
O8           C11   1.278       .  A
O8          Cu10   1.999   1_554  S
Cu9         O201   2.006       .  S
Cu9         O203   1.984       .  S
Cu9        Cu210   2.370       .  S
Cu10        O205   2.026       .  S
Cu10        O207   1.995       .  S
Cu10       Cu209   2.370   1_556  S
C11         C172   1.480       .  S
C12         C182   1.479       .  S
C13         C192   1.466       .  S
C14         C162   1.477       .  S
O15          C25   1.279   1_455  A
O15         Cu23   2.014   1_545  S
O16          C26   1.278       .  A
O16        Cu623   2.001   1_554  S
O17          C27   1.277   1_455  A
O17        Cu423   2.004       .  S
O18          C28   1.277       .  A
O18        Cu223   2.006   1_544  S
O19         C828   1.279       .  A
O19        Cu224   2.015       .  S
O20         C827   1.279       .  A
O20        Cu424   2.007       .  S
O21         C826   1.278       .  A
O21        Cu624   2.007       .  S
O22         C825   1.278       .  A
O22         Cu24   2.001       .  S
Cu23        O616   2.001       .  S
Cu23        O417   2.004       .  S
Cu23        O218   2.006   1_565  S
Cu23      Cu2424   2.370   1_465  S
Cu24        O219   2.015       .  S
Cu24        O420   2.007   1_545  S
Cu24        O621   2.007   1_545  S
Cu24       Cu823   2.370   1_545  S
C25        O2422   1.278       .  A
C25         C142   1.481       .  S
C26        O2421   1.278   1_455  A
C26         C132   1.477       .  S
C27        O2420   1.279       .  A
C27         C125   1.477       .  S
C28        O2419   1.279   1_455  A
C28         C152   1.477       .  S
C29          C31   1.538       .  S
C29          C33   1.532       .  S
C29          C32   1.543       .  S
C29          C99   1.549       .  S
C30          C34   1.546       .  S
C30          C36   1.549       .  S
C30          C35   1.543       .  S
C30          C98   1.552       .  S
C31          C39   1.378       .  A
C31        C2434   1.389   1_455  A
C32          C43   1.382       .  A
C32        C2435   1.389   1_455  A
C33          C47   1.372       .  A
C33        C2436   1.391   1_455  A
C34          C37   1.379       .  A
C34         C831   1.389       .  A
C35          C41   1.384       .  A
C35         C832   1.389       .  A
C36          C44   1.386       .  A
C36         C833   1.391       .  A
C37          H50   1.079       .  S
C37         N838   1.360       .  A
N38          C39   1.361   1_655  A
N38        C2437   1.360       .  A
N38         C145   1.449       .  S
C39          H40   1.081       .  S
C41          H51   1.081       .  S
C41         N842   1.364       .  A
N42          C43   1.360   1_655  A
N42        C2441   1.364       .  A
N42          N65   1.420   1_655  S
C43          H49   1.081       .  S
C44          H46   1.081       .  S
C44         N845   1.363       .  A
N45          C47   1.352       .  A
N45        C2444   1.363   1_455  A
N45         C155   1.442       .  S
C47          H48   1.081       .  S
C52          C54   1.536       .  S
C52          C56   1.544       .  S
C52          C55   1.544       .  S
C52          C75   1.552       .  S
C53          C57   1.542       .  S
C53          C59   1.537       .  S
C53          C58   1.541       .  S
C53          C76   1.549       .  S
C54          C62   1.372       .  A
C54        C2457   1.389   1_455  A
C55          C66   1.384       .  A
C55        C2458   1.389   1_455  A
C56          C70   1.381       .  A
C56        C2459   1.390   1_455  A
C57          C60   1.380       .  A
C57         C854   1.389       .  A
C58          C64   1.382       .  A
C58         C855   1.389       .  A
C59          C67   1.375       .  A
C59         C856   1.390       .  A
C60          H73   1.081       .  S
C60         N861   1.362       .  A
N61          C62   1.356       .  A
N61        C2460   1.362   1_455  A
N61         C135   1.446       .  S
C62          H63   1.078       .  S
C64          H74   1.081       .  S
C64         N865   1.360       .  A
N65          C66   1.364       .  A
N65        C2464   1.360   1_455  A
C66          H72   1.081       .  S
C67          H69   1.080       .  S
C67         N868   1.357       .  A
N68          C70   1.361   1_655  A
N68        C2467   1.357       .  A
N68         C122   1.444       .  S
C70          H71   1.081       .  S
C75          C77   1.546       .  S
C75          C79   1.534       .  S
C75          C78   1.543       .  S
C76          C80   1.534       .  S
C76          C82   1.542       .  S
C76          C81   1.540       .  S
C77          C85   1.381       .  A
C77          C80   1.390       .  A
C78          C89   1.382       .  A
C78          C81   1.389       .  A
C79          C93   1.373       .  A
C79          C82   1.388       .  A
C80          C83   1.374       .  A
C81          C87   1.382       .  A
C82          C90   1.378       .  A
C83          H96   1.080       .  S
C83          N84   1.357       .  A
N84          C85   1.361       .  A
N84         C175   1.444       .  S
C85          H86   1.081       .  S
C87          H97   1.081       .  S
C87          N88   1.362       .  A
N88          C89   1.362       .  A
N88         N511   1.418       .  S
C89          H95   1.081       .  S
C90          H92   1.081       .  S
C90          N91   1.359       .  A
N91          C93   1.360       .  A
N91         C165   1.446       .  S
C93          H94   1.078       .  S
C98         C100   1.541       .  S
C98         C102   1.551       .  S
C98         C101   1.542       .  S
C99         C103   1.536       .  S
C99         C105   1.527       .  S
C99         C104   1.540       .  S
C100        C108   1.382       .  A
C100        C103   1.393       .  A
C101        C112   1.382       .  A
C101        C104   1.389       .  A
C102        C116   1.384       .  A
C102        C105   1.390       .  A
C103        C106   1.373       .  A
C104        C110   1.381       .  A
C105        C113   1.369       .  A
C106        H119   1.082       .  S
C106        N107   1.350       .  A
N107        C108   1.357       .  A
N107        C195   1.430       .  S
C108        H109   1.081       .  S
C110        H120   1.081       .  S
C110        N111   1.362       .  A
N111        C112   1.362       .  A
N111        N488   1.418   1_545  S
C112        H118   1.081       .  S
C113        H115   1.079       .  S
C113        N114   1.355       .  A
N114        C116   1.362       .  A
N114        C185   1.443       .  S
C116        H117   1.081       .  S
C121        C122   1.409   1_455  A
C121        C126   1.400       .  A
C121        H128   1.082       .  S
C122       C2523   1.408       .  A
C123        C124   1.397       .  A
C123        C922   1.408       .  A
C123        F130   1.356       .  S
C124        C925   1.405       .  A
C124        H129   1.083       .  S
C125        C126   1.405   1_655  A
C125       C2524   1.405       .  A
C126        F127   1.357       .  S
C131        C132   1.404       .  A
C131        C136   1.394       .  A
C131        H138   1.083       .  S
C132       C2533   1.405   1_455  A
C133        C134   1.399       .  A
C133        C932   1.405       .  A
C133        F140   1.357       .  S
C134        C935   1.410       .  A
C134        H139   1.082       .  S
C135        C136   1.411       .  A
C135       C2534   1.410   1_455  A
C136        F137   1.356       .  S
C141        C146   1.398       .  A
C141        C942   1.406       .  A
C141        H148   1.083       .  S
C142        C143   1.404   1_655  A
C142       C2541   1.406       .  A
C143        C144   1.400       .  A
C143        F150   1.357       .  S
C144        C145   1.411   1_455  A
C144        H149   1.082       .  S
C145       C2546   1.410       .  A
C146        C945   1.410       .  A
C146        F147   1.356       .  S
C151        C152   1.404       .  A
C151        C156   1.398       .  A
C151        H158   1.082       .  S
C152       C2553   1.401   1_455  A
C153        C154   1.402       .  A
C153        C952   1.401       .  A
C153        F160   1.353       .  S
C154        C955   1.406       .  A
C154        H159   1.080       .  S
C155        C156   1.407       .  A
C155       C2554   1.406   1_455  A
C156        F157   1.356       .  S
C161        C162   1.405       .  A
C161        C166   1.391       .  A
C161        H168   1.083       .  S
C162        C163   1.403       .  A
C163        C164   1.403       .  A
C163        F170   1.357       .  S
C164        C165   1.413       .  A
C164        H169   1.082       .  S
C165        C166   1.407       .  A
C166        F167   1.356       .  S
C171        C172   1.407       .  A
C171        C176   1.396       .  A
C171        H178   1.083       .  S
C172        C173   1.406       .  A
C173        C174   1.399       .  A
C173        F180   1.357       .  S
C174        C175   1.408       .  A
C174        H179   1.082       .  S
C175        C176   1.407       .  A
C176        F177   1.357       .  S
C181        C182   1.404       .  A
C181        C186   1.393       .  A
C181        H188   1.083       .  S
C182        C183   1.409       .  A
C183        C184   1.401       .  A
C183        F190   1.358       .  S
C184        C185   1.408       .  A
C184        H189   1.082       .  S
C185        C186   1.408       .  A
C186        F187   1.356       .  S
C191        C192   1.405       .  A
C191        C196   1.392       .  A
C191        H198   1.083       .  S
C192        C193   1.400       .  A
C193        C194   1.403       .  A
C193        F200   1.355       .  S
C194        C195   1.407       .  A
C194        H199   1.082       .  S
C195        C196   1.397       .  A
C196        F197   1.357       .  S
O201        C211   1.278       .  A
O202        C212   1.280       .  A
O202       Cu209   2.008   1_556  S
O203        C213   1.274       .  A
O204        C214   1.275       .  A
O204       Cu209   1.980   1_556  S
O205        C214   1.280       .  A
O206        C213   1.280       .  A
O206       Cu210   2.020       .  S
O207        C212   1.276       .  A
O208        C211   1.278       .  A
O208       Cu210   1.999       .  S
C211        C372   1.480       .  S
C212        C382   1.479       .  S
C213        C392   1.466       .  S
C214        C362   1.477       .  S
O215        C225   1.279   1_455  A
O215       Cu223   2.014   1_545  S
O216        C226   1.278       .  A
O216       Cu423   2.001       .  S
O217        C227   1.277   1_455  A
O217       Cu623   2.004       .  S
O218        C228   1.277       .  A
O219       C1028   1.279       .  A
O220       C1027   1.279       .  A
O220       Cu624   2.007   1_556  S
O221       C1026   1.278       .  A
O221       Cu424   2.007       .  S
O222       C1025   1.278       .  A
O222       Cu224   2.001   1_556  S
Cu223       O416   2.001   1_556  S
Cu223       O617   2.004       .  S
Cu223     Cu2624   2.370   1_466  S
Cu224       O620   2.007   1_544  S
Cu224       O421   2.007   1_545  S
Cu224     Cu1023   2.370   1_544  S
C225       O2622   1.278       .  A
C225        C342   1.481       .  S
C226       O2621   1.278   1_455  A
C226        C332   1.477       .  S
C227       O2620   1.279       .  A
C227        C325   1.477       .  S
C228       O2619   1.279   1_455  A
C228        C352   1.477       .  S
C229        C231   1.538       .  S
C229        C233   1.532       .  S
C229        C232   1.543       .  S
C229        C299   1.549       .  S
C230        C234   1.546       .  S
C230        C236   1.549       .  S
C230        C235   1.543       .  S
C230        C298   1.552       .  S
C231        C239   1.378       .  A
C231       C2634   1.389   1_455  A
C232        C243   1.382       .  A
C232       C2635   1.389   1_455  A
C233        C247   1.372       .  A
C233       C2636   1.391   1_455  A
C234       C1031   1.389       .  A
C234        C237   1.379       .  A
C235       C1032   1.389       .  A
C235        C241   1.384       .  A
C236       C1033   1.391       .  A
C236        C244   1.386       .  A
C237        H250   1.079       .  S
C237       N1038   1.360       .  A
N238       C2637   1.360       .  A
N238        C239   1.361   1_655  A
N238        C345   1.449       .  S
C239        H240   1.081       .  S
C241        H251   1.081       .  S
C241       N1042   1.364       .  A
N242       C2641   1.364       .  A
N242        C243   1.360   1_655  A
N242        N265   1.420   1_655  S
C243        H249   1.081       .  S
C244        H246   1.081       .  S
C244       N1045   1.363       .  A
N245       C2644   1.363   1_455  A
N245        C247   1.352       .  A
N245        C355   1.442       .  S
C247        H248   1.081       .  S
C252        C254   1.536       .  S
C252        C256   1.544       .  S
C252        C255   1.544       .  S
C252        C275   1.552       .  S
C253        C257   1.542       .  S
C253        C259   1.537       .  S
C253        C258   1.541       .  S
C253        C276   1.549       .  S
C254        C262   1.372       .  A
C254       C2657   1.389   1_455  A
C255        C266   1.384       .  A
C255       C2658   1.389   1_455  A
C256        C270   1.381       .  A
C256       C2659   1.390   1_455  A
C257       C1054   1.389       .  A
C257        C260   1.380       .  A
C258       C1055   1.389       .  A
C258        C264   1.382       .  A
C259       C1056   1.390       .  A
C259        C267   1.375       .  A
C260        H273   1.081       .  S
C260       N1061   1.362       .  A
N261       C2660   1.362   1_455  A
N261        C262   1.356       .  A
N261        C335   1.446       .  S
C262        H263   1.078       .  S
C264        H274   1.081       .  S
C264       N1065   1.360       .  A
N265       C2664   1.360   1_455  A
N265        C266   1.364       .  A
C266        H272   1.081       .  S
C267        H269   1.080       .  S
C267       N1068   1.357       .  A
N268       C2667   1.357       .  A
N268        C270   1.361   1_655  A
N268        C322   1.444       .  S
C270        H271   1.081       .  S
C275        C277   1.546       .  S
C275        C279   1.534       .  S
C275        C278   1.543       .  S
C276        C280   1.534       .  S
C276        C282   1.542       .  S
C276        C281   1.540       .  S
C277        C285   1.381       .  A
C277        C280   1.390       .  A
C278        C289   1.382       .  A
C278        C281   1.389       .  A
C279        C293   1.373       .  A
C279        C282   1.388       .  A
C280        C283   1.374       .  A
C281        C287   1.382       .  A
C282        C290   1.378       .  A
C283        H296   1.080       .  S
C283        N284   1.357       .  A
N284        C285   1.361       .  A
N284        C375   1.444       .  S
C285        H286   1.081       .  S
C287        H297   1.081       .  S
C287        N288   1.362       .  A
N288        C289   1.362       .  A
N288        N711   1.418       .  S
C289        H295   1.081       .  S
C290        H292   1.081       .  S
C290        N291   1.359       .  A
N291        C293   1.360       .  A
N291        C365   1.446       .  S
C293        H294   1.078       .  S
C298        C300   1.541       .  S
C298        C302   1.551       .  S
C298        C301   1.542       .  S
C299        C303   1.536       .  S
C299        C305   1.527       .  S
C299        C304   1.540       .  S
C300        C308   1.382       .  A
C300        C303   1.393       .  A
C301        C312   1.382       .  A
C301        C304   1.389       .  A
C302        C316   1.384       .  A
C302        C305   1.390       .  A
C303        C306   1.373       .  A
C304        C310   1.381       .  A
C305        C313   1.369       .  A
C306        H319   1.082       .  S
C306        N307   1.350       .  A
N307        C308   1.357       .  A
N307        C395   1.430       .  S
C308        H309   1.081       .  S
C310        H320   1.081       .  S
C310        N311   1.362       .  A
N311        C312   1.362       .  A
N311        N688   1.418   1_545  S
C312        H318   1.081       .  S
C313        H315   1.079       .  S
C313        N314   1.355       .  A
N314        C316   1.362       .  A
N314        C385   1.443       .  S
C316        H317   1.081       .  S
C321        C322   1.409   1_455  A
C321        C326   1.400       .  A
C321        H328   1.082       .  S
C322       C2723   1.408       .  A
C323       C1122   1.408       .  A
C323        C324   1.397       .  A
C323        F330   1.356       .  S
C324       C1125   1.405       .  A
C324        H329   1.083       .  S
C325       C2724   1.405       .  A
C325        C326   1.405   1_655  A
C326        F327   1.357       .  S
C331        C332   1.404       .  A
C331        C336   1.394       .  A
C331        H338   1.083       .  S
C332       C2733   1.405   1_455  A
C333       C1132   1.405       .  A
C333        C334   1.399       .  A
C333        F340   1.357       .  S
C334       C1135   1.410       .  A
C334        H339   1.082       .  S
C335       C2734   1.410   1_455  A
C335        C336   1.411       .  A
C336        F337   1.356       .  S
C341       C1142   1.406       .  A
C341        C346   1.398       .  A
C341        H348   1.083       .  S
C342       C2741   1.406       .  A
C342        C343   1.404   1_655  A
C343        C344   1.400       .  A
C343        F350   1.357       .  S
C344        C345   1.411   1_455  A
C344        H349   1.082       .  S
C345       C2746   1.410       .  A
C346       C1145   1.410       .  A
C346        F347   1.356       .  S
C351        C352   1.404       .  A
C351        C356   1.398       .  A
C351        H358   1.082       .  S
C352       C2753   1.401   1_455  A
C353       C1152   1.401       .  A
C353        C354   1.402       .  A
C353        F360   1.353       .  S
C354       C1155   1.406       .  A
C354        H359   1.080       .  S
C355       C2754   1.406   1_455  A
C355        C356   1.407       .  A
C356        F357   1.356       .  S
C361        C362   1.405       .  A
C361        C366   1.391       .  A
C361        H368   1.083       .  S
C362        C363   1.403       .  A
C363        C364   1.403       .  A
C363        F370   1.357       .  S
C364        C365   1.413       .  A
C364        H369   1.082       .  S
C365        C366   1.407       .  A
C366        F367   1.356       .  S
C371        C372   1.407       .  A
C371        C376   1.396       .  A
C371        H378   1.083       .  S
C372        C373   1.406       .  A
C373        C374   1.399       .  A
C373        F380   1.357       .  S
C374        C375   1.408       .  A
C374        H379   1.082       .  S
C375        C376   1.407       .  A
C376        F377   1.357       .  S
C381        C382   1.404       .  A
C381        C386   1.393       .  A
C381        H388   1.083       .  S
C382        C383   1.409       .  A
C383        C384   1.401       .  A
C383        F390   1.358       .  S
C384        C385   1.408       .  A
C384        H389   1.082       .  S
C385        C386   1.408       .  A
C386        F387   1.356       .  S
C391        C392   1.405       .  A
C391        C396   1.392       .  A
C391        H398   1.083       .  S
C392        C393   1.400       .  A
C393        C394   1.403       .  A
C393        F400   1.355       .  S
C394        C395   1.407       .  A
C394        H399   1.082       .  S
C395        C396   1.397       .  A
C396        F397   1.357       .  S
O401        C411   1.278       .  A
O401       Cu609   2.006       .  S
O402        C412   1.280       .  A
O402       Cu409   2.008       .  S
O403        C413   1.274       .  A
O403       Cu609   1.984       .  S
O404        C414   1.275       .  A
O404       Cu409   1.980       .  S
O405        C414   1.280       .  A
O405       Cu610   2.026       .  S
O406        C413   1.280       .  A
O406       Cu410   2.020   1_554  S
O407        C412   1.276       .  A
O407       Cu610   1.995       .  S
O408        C411   1.278       .  A
O408       Cu410   1.999   1_554  S
Cu409       O601   2.006       .  S
Cu409       O603   1.984       .  S
Cu409      Cu610   2.370       .  S
Cu410       O605   2.026       .  S
Cu410       O607   1.995       .  S
Cu410      Cu609   2.370   1_556  S
C411        C572   1.480       .  S
C412        C582   1.479       .  S
C413        C592   1.466       .  S
C414        C562   1.477       .  S
O415        C425   1.279   1_455  A
O415       Cu423   2.014       .  S
O416        C426   1.278       .  A
O417        C427   1.277   1_455  A
O418        C428   1.277       .  A
O418       Cu623   2.006   1_554  S
O419       C1228   1.279       .  A
O419       Cu624   2.015       .  S
O420       C1227   1.279       .  A
O421       C1226   1.278       .  A
O422       C1225   1.278       .  A
O422       Cu424   2.001       .  S
Cu423       O618   2.006       .  S
Cu423     Cu2824   2.370   1_455  S
Cu424       O619   2.015       .  S
Cu424     Cu1223   2.370       .  S
C425       O2822   1.278       .  A
C425        C542   1.481       .  S
C426       O2821   1.278   1_455  A
C426        C532   1.477       .  S
C427       O2820   1.279       .  A
C427        C525   1.477       .  S
C428       O2819   1.279   1_455  A
C428        C552   1.477       .  S
C429        C431   1.538       .  S
C429        C433   1.532       .  S
C429        C432   1.543       .  S
C429        C499   1.549       .  S
C430        C434   1.546       .  S
C430        C436   1.549       .  S
C430        C435   1.543       .  S
C430        C498   1.552       .  S
C431        C439   1.378       .  A
C431       C2834   1.389   1_455  A
C432        C443   1.382       .  A
C432       C2835   1.389   1_455  A
C433        C447   1.372       .  A
C433       C2836   1.391   1_455  A
C434       C1231   1.389       .  A
C434        C437   1.379       .  A
C435       C1232   1.389       .  A
C435        C441   1.384       .  A
C436       C1233   1.391       .  A
C436        C444   1.386       .  A
C437        H450   1.079       .  S
C437       N1238   1.360       .  A
N438       C2837   1.360       .  A
N438        C439   1.361   1_655  A
N438        C545   1.449       .  S
C439        H440   1.081       .  S
C441        H451   1.081       .  S
C441       N1242   1.364       .  A
N442       C2841   1.364       .  A
N442        C443   1.360   1_655  A
N442        N465   1.420   1_655  S
C443        H449   1.081       .  S
C444        H446   1.081       .  S
C444       N1245   1.363       .  A
N445       C2844   1.363   1_455  A
N445        C447   1.352       .  A
N445        C555   1.442       .  S
C447        H448   1.081       .  S
C452        C454   1.536       .  S
C452        C456   1.544       .  S
C452        C455   1.544       .  S
C452        C475   1.552       .  S
C453        C457   1.542       .  S
C453        C459   1.537       .  S
C453        C458   1.541       .  S
C453        C476   1.549       .  S
C454        C462   1.372       .  A
C454       C2857   1.389   1_455  A
C455        C466   1.384       .  A
C455       C2858   1.389   1_455  A
C456        C470   1.381       .  A
C456       C2859   1.390   1_455  A
C457       C1254   1.389       .  A
C457        C460   1.380       .  A
C458       C1255   1.389       .  A
C458        C464   1.382       .  A
C459       C1256   1.390       .  A
C459        C467   1.375       .  A
C460        H473   1.081       .  S
C460       N1261   1.362       .  A
N461       C2860   1.362   1_455  A
N461        C462   1.356       .  A
N461        C535   1.446       .  S
C462        H463   1.078       .  S
C464        H474   1.081       .  S
C464       N1265   1.360       .  A
N465       C2864   1.360   1_455  A
N465        C466   1.364       .  A
C466        H472   1.081       .  S
C467        H469   1.080       .  S
C467       N1268   1.357       .  A
N468       C2867   1.357       .  A
N468        C470   1.361   1_655  A
N468        C522   1.444       .  S
C470        H471   1.081       .  S
C475        C477   1.546       .  S
C475        C479   1.534       .  S
C475        C478   1.543       .  S
C476        C480   1.534       .  S
C476        C482   1.542       .  S
C476        C481   1.540       .  S
C477        C485   1.381       .  A
C477        C480   1.390       .  A
C478        C489   1.382       .  A
C478        C481   1.389       .  A
C479        C493   1.373       .  A
C479        C482   1.388       .  A
C480        C483   1.374       .  A
C481        C487   1.382       .  A
C482        C490   1.378       .  A
C483        H496   1.080       .  S
C483        N484   1.357       .  A
N484        C485   1.361       .  A
N484        C575   1.444       .  S
C485        H486   1.081       .  S
C487        H497   1.081       .  S
C487        N488   1.362       .  A
N488        C489   1.362       .  A
C489        H495   1.081       .  S
C490        H492   1.081       .  S
C490        N491   1.359       .  A
N491        C493   1.360       .  A
N491        C565   1.446       .  S
C493        H494   1.078       .  S
C498        C500   1.541       .  S
C498        C502   1.551       .  S
C498        C501   1.542       .  S
C499        C503   1.536       .  S
C499        C505   1.527       .  S
C499        C504   1.540       .  S
C500        C508   1.382       .  A
C500        C503   1.393       .  A
C501        C512   1.382       .  A
C501        C504   1.389       .  A
C502        C516   1.384       .  A
C502        C505   1.390       .  A
C503        C506   1.373       .  A
C504        C510   1.381       .  A
C505        C513   1.369       .  A
C506        H519   1.082       .  S
C506        N507   1.350       .  A
N507        C508   1.357       .  A
N507        C595   1.430       .  S
C508        H509   1.081       .  S
C510        H520   1.081       .  S
C510        N511   1.362       .  A
N511        C512   1.362       .  A
C512        H518   1.081       .  S
C513        H515   1.079       .  S
C513        N514   1.355       .  A
N514        C516   1.362       .  A
N514        C585   1.443       .  S
C516        H517   1.081       .  S
C521        C522   1.409   1_455  A
C521        C526   1.400       .  A
C521        H528   1.082       .  S
C522       C2923   1.408       .  A
C523       C1322   1.408       .  A
C523        C524   1.397       .  A
C523        F530   1.356       .  S
C524       C1325   1.405       .  A
C524        H529   1.083       .  S
C525       C2924   1.405       .  A
C525        C526   1.405   1_655  A
C526        F527   1.357       .  S
C531        C532   1.404       .  A
C531        C536   1.394       .  A
C531        H538   1.083       .  S
C532       C2933   1.405   1_455  A
C533       C1332   1.405       .  A
C533        C534   1.399       .  A
C533        F540   1.357       .  S
C534       C1335   1.410       .  A
C534        H539   1.082       .  S
C535       C2934   1.410   1_455  A
C535        C536   1.411       .  A
C536        F537   1.356       .  S
C541       C1342   1.406       .  A
C541        C546   1.398       .  A
C541        H548   1.083       .  S
C542       C2941   1.406       .  A
C542        C543   1.404   1_655  A
C543        C544   1.400       .  A
C543        F550   1.357       .  S
C544        C545   1.411   1_455  A
C544        H549   1.081       .  S
C545       C2946   1.410       .  A
C546       C1345   1.410       .  A
C546        F547   1.356       .  S
C551        C552   1.404       .  A
C551        C556   1.398       .  A
C551        H558   1.082       .  S
C552       C2953   1.401   1_455  A
C553       C1352   1.401       .  A
C553        C554   1.402       .  A
C553        F560   1.353       .  S
C554       C1355   1.406       .  A
C554        H559   1.080       .  S
C555       C2954   1.406   1_455  A
C555        C556   1.407       .  A
C556        F557   1.356       .  S
C561        C562   1.405       .  A
C561        C566   1.391       .  A
C561        H568   1.083       .  S
C562        C563   1.403       .  A
C563        C564   1.403       .  A
C563        F570   1.357       .  S
C564        C565   1.413       .  A
C564        H569   1.082       .  S
C565        C566   1.407       .  A
C566        F567   1.356       .  S
C571        C572   1.407       .  A
C571        C576   1.396       .  A
C571        H578   1.083       .  S
C572        C573   1.406       .  A
C573        C574   1.399       .  A
C573        F580   1.357       .  S
C574        C575   1.408       .  A
C574        H579   1.082       .  S
C575        C576   1.407       .  A
C576        F577   1.357       .  S
C581        C582   1.404       .  A
C581        C586   1.393       .  A
C581        H588   1.083       .  S
C582        C583   1.409       .  A
C583        C584   1.401       .  A
C583        F590   1.358       .  S
C584        C585   1.408       .  A
C584        H589   1.082       .  S
C585        C586   1.408       .  A
C586        F587   1.356       .  S
C591        C592   1.405       .  A
C591        C596   1.392       .  A
C591        H598   1.083       .  S
C592        C593   1.400       .  A
C593        C594   1.403       .  A
C593        F600   1.355       .  S
C594        C595   1.407       .  A
C594        H599   1.082       .  S
C595        C596   1.397       .  A
C596        F597   1.357       .  S
O601        C611   1.278       .  A
O602        C612   1.280       .  A
O602       Cu609   2.008   1_556  S
O603        C613   1.274       .  A
O604        C614   1.275       .  A
O604       Cu609   1.980   1_556  S
O605        C614   1.280       .  A
O606        C613   1.280       .  A
O606       Cu610   2.020       .  S
O607        C612   1.276       .  A
O608        C611   1.278       .  A
O608       Cu610   1.999       .  S
C611        C772   1.480       .  S
C612        C782   1.479       .  S
C613        C792   1.466       .  S
C614        C762   1.477       .  S
O615        C625   1.279   1_455  A
O615       Cu623   2.014       .  S
O616        C626   1.278       .  A
O617        C627   1.277   1_455  A
O618        C628   1.277       .  A
O619       C1428   1.279       .  A
O620       C1427   1.279       .  A
O621       C1426   1.278       .  A
O622       C1425   1.278       .  A
O622       Cu624   2.001   1_556  S
Cu623     Cu3024   2.370   1_456  S
Cu624     Cu1423   2.370   1_554  S
C625       O3022   1.278       .  A
C625        C742   1.481       .  S
C626       O3021   1.278   1_455  A
C626        C732   1.477       .  S
C627       O3020   1.279       .  A
C627        C725   1.477       .  S
C628       O3019   1.279   1_455  A
C628        C752   1.477       .  S
C629        C631   1.538       .  S
C629        C633   1.532       .  S
C629        C632   1.543       .  S
C629        C699   1.549       .  S
C630        C634   1.546       .  S
C630        C636   1.549       .  S
C630        C635   1.543       .  S
C630        C698   1.552       .  S
C631        C639   1.378       .  A
C631       C3034   1.389   1_455  A
C632        C643   1.382       .  A
C632       C3035   1.389   1_455  A
C633        C647   1.372       .  A
C633       C3036   1.391   1_455  A
C634       C1431   1.389       .  A
C634        C637   1.379       .  A
C635       C1432   1.389       .  A
C635        C641   1.384       .  A
C636       C1433   1.391       .  A
C636        C644   1.386       .  A
C637        H650   1.079       .  S
C637       N1438   1.360       .  A
N638       C3037   1.360       .  A
N638        C639   1.361   1_655  A
N638        C745   1.449       .  S
C639        H640   1.081       .  S
C641        H651   1.081       .  S
C641       N1442   1.364       .  A
N642       C3041   1.364       .  A
N642        C643   1.360   1_655  A
N642        N665   1.420   1_655  S
C643        H649   1.081       .  S
C644        H646   1.081       .  S
C644       N1445   1.363       .  A
N645       C3044   1.363   1_455  A
N645        C647   1.352       .  A
N645        C755   1.442       .  S
C647        H648   1.081       .  S
C652        C654   1.536       .  S
C652        C656   1.544       .  S
C652        C655   1.544       .  S
C652        C675   1.552       .  S
C653        C657   1.542       .  S
C653        C659   1.537       .  S
C653        C658   1.541       .  S
C653        C676   1.549       .  S
C654        C662   1.372       .  A
C654       C3057   1.389   1_455  A
C655        C666   1.384       .  A
C655       C3058   1.389   1_455  A
C656        C670   1.381       .  A
C656       C3059   1.390   1_455  A
C657       C1454   1.389       .  A
C657        C660   1.380       .  A
C658       C1455   1.389       .  A
C658        C664   1.382       .  A
C659       C1456   1.390       .  A
C659        C667   1.375       .  A
C660        H673   1.081       .  S
C660       N1461   1.362       .  A
N661       C3060   1.362   1_455  A
N661        C662   1.356       .  A
N661        C735   1.446       .  S
C662        H663   1.078       .  S
C664        H674   1.081       .  S
C664       N1465   1.360       .  A
N665       C3064   1.360   1_455  A
N665        C666   1.364       .  A
C666        H672   1.081       .  S
C667        H669   1.080       .  S
C667       N1468   1.357       .  A
N668       C3067   1.357       .  A
N668        C670   1.361   1_655  A
N668        C722   1.444       .  S
C670        H671   1.081       .  S
C675        C677   1.546       .  S
C675        C679   1.534       .  S
C675        C678   1.543       .  S
C676        C680   1.534       .  S
C676        C682   1.542       .  S
C676        C681   1.540       .  S
C677        C685   1.381       .  A
C677        C680   1.390       .  A
C678        C689   1.382       .  A
C678        C681   1.389       .  A
C679        C693   1.373       .  A
C679        C682   1.388       .  A
C680        C683   1.374       .  A
C681        C687   1.382       .  A
C682        C690   1.378       .  A
C683        H696   1.080       .  S
C683        N684   1.357       .  A
N684        C685   1.361       .  A
N684        C775   1.444       .  S
C685        H686   1.081       .  S
C687        H697   1.081       .  S
C687        N688   1.362       .  A
N688        C689   1.362       .  A
C689        H695   1.081       .  S
C690        H692   1.081       .  S
C690        N691   1.359       .  A
N691        C693   1.360       .  A
N691        C765   1.446       .  S
C693        H694   1.078       .  S
C698        C700   1.541       .  S
C698        C702   1.551       .  S
C698        C701   1.542       .  S
C699        C703   1.536       .  S
C699        C705   1.527       .  S
C699        C704   1.540       .  S
C700        C708   1.382       .  A
C700        C703   1.393       .  A
C701        C712   1.382       .  A
C701        C704   1.389       .  A
C702        C716   1.384       .  A
C702        C705   1.390       .  A
C703        C706   1.373       .  A
C704        C710   1.381       .  A
C705        C713   1.369       .  A
C706        H719   1.082       .  S
C706        N707   1.350       .  A
N707        C708   1.357       .  A
N707        C795   1.430       .  S
C708        H709   1.081       .  S
C710        H720   1.081       .  S
C710        N711   1.362       .  A
N711        C712   1.362       .  A
C712        H718   1.081       .  S
C713        H715   1.079       .  S
C713        N714   1.355       .  A
N714        C716   1.362       .  A
N714        C785   1.443       .  S
C716        H717   1.081       .  S
C721        C722   1.409   1_455  A
C721        C726   1.400       .  A
C721        H728   1.082       .  S
C722       C3123   1.408       .  A
C723       C1522   1.408       .  A
C723        C724   1.397       .  A
C723        F730   1.356       .  S
C724       C1525   1.405       .  A
C724        H729   1.083       .  S
C725       C3124   1.405       .  A
C725        C726   1.405   1_655  A
C726        F727   1.357       .  S
C731        C732   1.404       .  A
C731        C736   1.394       .  A
C731        H738   1.083       .  S
C732       C3133   1.405   1_455  A
C733       C1532   1.405       .  A
C733        C734   1.399       .  A
C733        F740   1.357       .  S
C734       C1535   1.410       .  A
C734        H739   1.082       .  S
C735       C3134   1.410   1_455  A
C735        C736   1.411       .  A
C736        F737   1.356       .  S
C741       C1542   1.406       .  A
C741        C746   1.398       .  A
C741        H748   1.083       .  S
C742       C3141   1.406       .  A
C742        C743   1.404   1_655  A
C743        C744   1.400       .  A
C743        F750   1.357       .  S
C744        C745   1.411   1_455  A
C744        H749   1.082       .  S
C745       C3146   1.410       .  A
C746       C1545   1.410       .  A
C746        F747   1.356       .  S
C751        C752   1.404       .  A
C751        C756   1.398       .  A
C751        H758   1.082       .  S
C752       C3153   1.401   1_455  A
C753       C1552   1.401       .  A
C753        C754   1.402       .  A
C753        F760   1.353       .  S
C754       C1555   1.406       .  A
C754        H759   1.080       .  S
C755       C3154   1.406   1_455  A
C755        C756   1.407       .  A
C756        F757   1.356       .  S
C761        C762   1.405       .  A
C761        C766   1.391       .  A
C761        H768   1.083       .  S
C762        C763   1.403       .  A
C763        C764   1.403       .  A
C763        F770   1.357       .  S
C764        C765   1.413       .  A
C764        H769   1.082       .  S
C765        C766   1.407       .  A
C766        F767   1.356       .  S
C771        C772   1.407       .  A
C771        C776   1.396       .  A
C771        H778   1.083       .  S
C772        C773   1.406       .  A
C773        C774   1.399       .  A
C773        F780   1.357       .  S
C774        C775   1.408       .  A
C774        H779   1.082       .  S
C775        C776   1.407       .  A
C776        F777   1.357       .  S
C781        C782   1.404       .  A
C781        C786   1.393       .  A
C781        H788   1.083       .  S
C782        C783   1.409       .  A
C783        C784   1.401       .  A
C783        F790   1.358       .  S
C784        C785   1.408       .  A
C784        H789   1.082       .  S
C785        C786   1.408       .  A
C786        F787   1.356       .  S
C791        C792   1.405       .  A
C791        C796   1.392       .  A
C791        H798   1.083       .  S
C792        C793   1.400       .  A
C793        C794   1.403       .  A
C793        F800   1.355       .  S
C794        C795   1.407       .  A
C794        H799   1.082       .  S
C795        C796   1.397       .  A
C796        F797   1.357       .  S
O801        C811   1.278       .  A
O801      Cu1009   2.006       .  S
O802        C812   1.280       .  A
O802       Cu809   2.008       .  S
O803        C813   1.274       .  A
O803      Cu1009   1.984       .  S
O804        C814   1.275       .  A
O804       Cu809   1.980       .  S
O805        C814   1.280       .  A
O805      Cu1010   2.026       .  S
O806        C813   1.280       .  A
O806       Cu810   2.020   1_554  S
O807        C812   1.276       .  A
O807      Cu1010   1.995       .  S
O808        C811   1.278       .  A
O808       Cu810   1.999   1_554  S
Cu809      O1001   2.006       .  S
Cu809      O1003   1.984       .  S
Cu809     Cu1010   2.370       .  S
Cu810      O1005   2.026       .  S
Cu810      O1007   1.995       .  S
Cu810     Cu1009   2.370   1_556  S
C811        C972   1.480       .  S
C812        C982   1.479       .  S
C813        C992   1.466       .  S
C814        C962   1.477       .  S
O815        C825   1.279       .  A
O815       Cu823   2.014   1_545  S
O816        C826   1.278       .  A
O816      Cu1423   2.001   1_554  S
O817        C827   1.277       .  A
O817      Cu1223   2.004       .  S
O818        C828   1.277       .  A
O818      Cu1023   2.006   1_544  S
O819       C1628   1.279       .  A
O819      Cu1024   2.015       .  S
O820       C1627   1.279       .  A
O820      Cu1224   2.007       .  S
O821       C1626   1.278       .  A
O821      Cu1424   2.007       .  S
O822       C1625   1.278       .  A
O822       Cu824   2.001       .  S
Cu823      O1416   2.001       .  S
Cu823      O1217   2.004       .  S
Cu823      O1018   2.006   1_565  S
Cu824      O1019   2.015       .  S
Cu824      O1220   2.007   1_545  S
Cu824      O1421   2.007   1_545  S
Cu824     Cu1623   2.370   1_545  S
C825        C942   1.481       .  S
C826        C932   1.477       .  S
C827        C925   1.477       .  S
C828        C952   1.477       .  S
C829        C831   1.538       .  S
C829        C833   1.532       .  S
C829        C832   1.543       .  S
C829        C899   1.549       .  S
C830        C834   1.546       .  S
C830        C836   1.549       .  S
C830        C835   1.543       .  S
C830        C898   1.552       .  S
C831        C839   1.378       .  A
C832        C843   1.382       .  A
C833        C847   1.372       .  A
C834       C1631   1.389       .  A
C834        C837   1.379       .  A
C835       C1632   1.389       .  A
C835        C841   1.384       .  A
C836       C1633   1.391       .  A
C836        C844   1.386       .  A
C837        H850   1.079       .  S
C837       N1638   1.360       .  A
N838        C839   1.361       .  A
N838        C945   1.449       .  S
C839        H840   1.081       .  S
C841        H851   1.081       .  S
C841       N1642   1.364       .  A
N842        C843   1.360       .  A
N842        N865   1.420       .  S
C843        H849   1.081       .  S
C844        H846   1.081       .  S
C844       N1645   1.363       .  A
N845        C847   1.352       .  A
N845        C955   1.442       .  S
C847        H848   1.081       .  S
C852        C854   1.536       .  S
C852        C856   1.544       .  S
C852        C855   1.544       .  S
C852        C875   1.552       .  S
C853        C857   1.542       .  S
C853        C859   1.537       .  S
C853        C858   1.541       .  S
C853        C876   1.549       .  S
C854        C862   1.372       .  A
C855        C866   1.384       .  A
C856        C870   1.381       .  A
C857       C1654   1.389       .  A
C857        C860   1.380       .  A
C858       C1655   1.389       .  A
C858        C864   1.382       .  A
C859       C1656   1.390       .  A
C859        C867   1.375       .  A
C860        H873   1.081       .  S
C860       N1661   1.362       .  A
N861        C862   1.356       .  A
N861        C935   1.446       .  S
C862        H863   1.078       .  S
C864        H874   1.081       .  S
C864       N1665   1.360       .  A
N865        C866   1.364       .  A
C866        H872   1.081       .  S
C867        H869   1.080       .  S
C867       N1668   1.357       .  A
N868        C870   1.361       .  A
N868        C922   1.444       .  S
C870        H871   1.081       .  S
C875        C877   1.546       .  S
C875        C879   1.534       .  S
C875        C878   1.543       .  S
C876        C880   1.534       .  S
C876        C882   1.542       .  S
C876        C881   1.540       .  S
C877        C885   1.381       .  A
C877        C880   1.390       .  A
C878        C889   1.382       .  A
C878        C881   1.389       .  A
C879        C893   1.373       .  A
C879        C882   1.388       .  A
C880        C883   1.374       .  A
C881        C887   1.382       .  A
C882        C890   1.378       .  A
C883        H896   1.080       .  S
C883        N884   1.357       .  A
N884        C885   1.361       .  A
N884        C975   1.444       .  S
C885        H886   1.081       .  S
C887        H897   1.081       .  S
C887        N888   1.362       .  A
N888        C889   1.362       .  A
N888       N1311   1.418       .  S
C889        H895   1.081       .  S
C890        H892   1.081       .  S
C890        N891   1.359       .  A
N891        C893   1.360       .  A
N891        C965   1.446       .  S
C893        H894   1.078       .  S
C898        C900   1.541       .  S
C898        C902   1.551       .  S
C898        C901   1.542       .  S
C899        C903   1.536       .  S
C899        C905   1.527       .  S
C899        C904   1.540       .  S
C900        C908   1.382       .  A
C900        C903   1.393       .  A
C901        C912   1.382       .  A
C901        C904   1.389       .  A
C902        C916   1.384       .  A
C902        C905   1.390       .  A
C903        C906   1.373       .  A
C904        C910   1.381       .  A
C905        C913   1.369       .  A
C906        H919   1.082       .  S
C906        N907   1.350       .  A
N907        C908   1.357       .  A
N907        C995   1.430       .  S
C908        H909   1.081       .  S
C910        H920   1.081       .  S
C910        N911   1.362       .  A
N911        C912   1.362       .  A
N911       N1288   1.418   1_545  S
C912        H918   1.081       .  S
C913        H915   1.079       .  S
C913        N914   1.355       .  A
N914        C916   1.362       .  A
N914        C985   1.443       .  S
C916        H917   1.081       .  S
C921        C922   1.409       .  A
C921        C926   1.400       .  A
C921        H928   1.082       .  S
C923       C1722   1.408       .  A
C923        C924   1.397       .  A
C923        F930   1.356       .  S
C924       C1725   1.405       .  A
C924        H929   1.083       .  S
C925        C926   1.405       .  A
C926        F927   1.357       .  S
C931        C932   1.404       .  A
C931        C936   1.394       .  A
C931        H938   1.083       .  S
C933       C1732   1.405       .  A
C933        C934   1.399       .  A
C933        F940   1.357       .  S
C934       C1735   1.410       .  A
C934        H939   1.082       .  S
C935        C936   1.411       .  A
C936        F937   1.356       .  S
C941       C1742   1.406       .  A
C941        C946   1.398       .  A
C941        H948   1.083       .  S
C942        C943   1.404       .  A
C943        C944   1.400       .  A
C943        F950   1.357       .  S
C944        C945   1.411       .  A
C944        H949   1.082       .  S
C946       C1745   1.410       .  A
C946        F947   1.356       .  S
C951        C952   1.404       .  A
C951        C956   1.398       .  A
C951        H958   1.082       .  S
C953       C1752   1.401       .  A
C953        C954   1.402       .  A
C953        F960   1.353       .  S
C954       C1755   1.406       .  A
C954        H959   1.080       .  S
C955        C956   1.407       .  A
C956        F957   1.356       .  S
C961        C962   1.405       .  A
C961        C966   1.391       .  A
C961        H968   1.083       .  S
C962        C963   1.403       .  A
C963        C964   1.403       .  A
C963        F970   1.357       .  S
C964        C965   1.413       .  A
C964        H969   1.082       .  S
C965        C966   1.407       .  A
C966        F967   1.356       .  S
C971        C972   1.407       .  A
C971        C976   1.396       .  A
C971        H978   1.083       .  S
C972        C973   1.406       .  A
C973        C974   1.399       .  A
C973        F980   1.357       .  S
C974        C975   1.408       .  A
C974        H979   1.082       .  S
C975        C976   1.407       .  A
C976        F977   1.357       .  S
C981        C982   1.404       .  A
C981        C986   1.393       .  A
C981        H988   1.083       .  S
C982        C983   1.409       .  A
C983        C984   1.401       .  A
C983        F990   1.358       .  S
C984        C985   1.408       .  A
C984        H989   1.082       .  S
C985        C986   1.408       .  A
C986        F987   1.356       .  S
C991        C992   1.405       .  A
C991        C996   1.392       .  A
C991        H998   1.083       .  S
C992        C993   1.400       .  A
C993        C994   1.403       .  A
C993       F1000   1.355       .  S
C994        C995   1.407       .  A
C994        H999   1.082       .  S
C995        C996   1.397       .  A
C996        F997   1.357       .  S
O1001      C1011   1.278       .  A
O1002      C1012   1.280       .  A
O1002     Cu1009   2.008   1_556  S
O1003      C1013   1.274       .  A
O1004      C1014   1.275       .  A
O1004     Cu1009   1.980   1_556  S
O1005      C1014   1.280       .  A
O1006      C1013   1.280       .  A
O1006     Cu1010   2.020       .  S
O1007      C1012   1.276       .  A
O1008      C1011   1.278       .  A
O1008     Cu1010   1.999       .  S
C1011      C1172   1.480       .  S
C1012      C1182   1.479       .  S
C1013      C1192   1.466       .  S
C1014      C1162   1.477       .  S
O1015      C1025   1.279       .  A
O1015     Cu1023   2.014   1_545  S
O1016      C1026   1.278       .  A
O1016     Cu1223   2.001       .  S
O1017      C1027   1.277       .  A
O1017     Cu1423   2.004       .  S
O1018      C1028   1.277       .  A
O1019      C1828   1.279       .  A
O1020      C1827   1.279       .  A
O1020     Cu1424   2.007   1_556  S
O1021      C1826   1.278       .  A
O1021     Cu1224   2.007       .  S
O1022      C1825   1.278       .  A
O1022     Cu1024   2.001   1_556  S
Cu1023     O1216   2.001   1_556  S
Cu1023     O1417   2.004       .  S
Cu1024     O1420   2.007   1_544  S
Cu1024     O1221   2.007   1_545  S
Cu1024    Cu1823   2.370   1_544  S
C1025      C1142   1.481       .  S
C1026      C1132   1.477       .  S
C1027      C1125   1.477       .  S
C1028      C1152   1.477       .  S
C1029      C1031   1.538       .  S
C1029      C1033   1.532       .  S
C1029      C1032   1.543       .  S
C1029      C1099   1.549       .  S
C1030      C1034   1.546       .  S
C1030      C1036   1.549       .  S
C1030      C1035   1.543       .  S
C1030      C1098   1.552       .  S
C1031      C1039   1.378       .  A
C1032      C1043   1.382       .  A
C1033      C1047   1.372       .  A
C1034      C1831   1.389       .  A
C1034      C1037   1.379       .  A
C1035      C1832   1.389       .  A
C1035      C1041   1.384       .  A
C1036      C1833   1.391       .  A
C1036      C1044   1.386       .  A
C1037      H1050   1.079       .  S
C1037      N1838   1.360       .  A
N1038      C1039   1.361       .  A
N1038      C1145   1.449       .  S
C1039      H1040   1.081       .  S
C1041      H1051   1.081       .  S
C1041      N1842   1.364       .  A
N1042      C1043   1.360       .  A
N1042      N1065   1.420       .  S
C1043      H1049   1.081       .  S
C1044      H1046   1.081       .  S
C1044      N1845   1.363       .  A
N1045      C1047   1.352       .  A
N1045      C1155   1.442       .  S
C1047      H1048   1.081       .  S
C1052      C1054   1.536       .  S
C1052      C1056   1.544       .  S
C1052      C1055   1.544       .  S
C1052      C1075   1.552       .  S
C1053      C1057   1.542       .  S
C1053      C1059   1.537       .  S
C1053      C1058   1.541       .  S
C1053      C1076   1.549       .  S
C1054      C1062   1.372       .  A
C1055      C1066   1.384       .  A
C1056      C1070   1.381       .  A
C1057      C1854   1.389       .  A
C1057      C1060   1.380       .  A
C1058      C1855   1.389       .  A
C1058      C1064   1.382       .  A
C1059      C1856   1.390       .  A
C1059      C1067   1.375       .  A
C1060      H1073   1.081       .  S
C1060      N1861   1.362       .  A
N1061      C1062   1.356       .  A
N1061      C1135   1.446       .  S
C1062      H1063   1.078       .  S
C1064      H1074   1.081       .  S
C1064      N1865   1.360       .  A
N1065      C1066   1.364       .  A
C1066      H1072   1.081       .  S
C1067      H1069   1.080       .  S
C1067      N1868   1.357       .  A
N1068      C1070   1.361       .  A
N1068      C1122   1.444       .  S
C1070      H1071   1.081       .  S
C1075      C1077   1.546       .  S
C1075      C1079   1.534       .  S
C1075      C1078   1.543       .  S
C1076      C1080   1.534       .  S
C1076      C1082   1.542       .  S
C1076      C1081   1.540       .  S
C1077      C1085   1.381       .  A
C1077      C1080   1.390       .  A
C1078      C1089   1.382       .  A
C1078      C1081   1.389       .  A
C1079      C1093   1.373       .  A
C1079      C1082   1.388       .  A
C1080      C1083   1.374       .  A
C1081      C1087   1.382       .  A
C1082      C1090   1.378       .  A
C1083      H1096   1.080       .  S
C1083      N1084   1.357       .  A
N1084      C1085   1.361       .  A
N1084      C1175   1.444       .  S
C1085      H1086   1.081       .  S
C1087      H1097   1.081       .  S
C1087      N1088   1.362       .  A
N1088      C1089   1.362       .  A
N1088      N1511   1.418       .  S
C1089      H1095   1.081       .  S
C1090      H1092   1.081       .  S
C1090      N1091   1.359       .  A
N1091      C1093   1.360       .  A
N1091      C1165   1.446       .  S
C1093      H1094   1.078       .  S
C1098      C1100   1.541       .  S
C1098      C1102   1.551       .  S
C1098      C1101   1.542       .  S
C1099      C1103   1.536       .  S
C1099      C1105   1.527       .  S
C1099      C1104   1.540       .  S
C1100      C1108   1.382       .  A
C1100      C1103   1.393       .  A
C1101      C1112   1.382       .  A
C1101      C1104   1.389       .  A
C1102      C1116   1.384       .  A
C1102      C1105   1.390       .  A
C1103      C1106   1.373       .  A
C1104      C1110   1.381       .  A
C1105      C1113   1.369       .  A
C1106      H1119   1.082       .  S
C1106      N1107   1.350       .  A
N1107      C1108   1.357       .  A
N1107      C1195   1.430       .  S
C1108      H1109   1.081       .  S
C1110      H1120   1.081       .  S
C1110      N1111   1.362       .  A
N1111      C1112   1.362       .  A
N1111      N1488   1.418   1_545  S
C1112      H1118   1.081       .  S
C1113      H1115   1.079       .  S
C1113      N1114   1.355       .  A
N1114      C1116   1.362       .  A
N1114      C1185   1.443       .  S
C1116      H1117   1.081       .  S
C1121      C1122   1.409       .  A
C1121      C1126   1.400       .  A
C1121      H1128   1.082       .  S
C1123      C1922   1.408       .  A
C1123      C1124   1.397       .  A
C1123      F1130   1.356       .  S
C1124      C1925   1.405       .  A
C1124      H1129   1.083       .  S
C1125      C1126   1.405       .  A
C1126      F1127   1.357       .  S
C1131      C1132   1.404       .  A
C1131      C1136   1.394       .  A
C1131      H1138   1.083       .  S
C1133      C1932   1.405       .  A
C1133      C1134   1.399       .  A
C1133      F1140   1.357       .  S
C1134      C1935   1.410       .  A
C1134      H1139   1.082       .  S
C1135      C1136   1.411       .  A
C1136      F1137   1.356       .  S
C1141      C1942   1.406       .  A
C1141      C1146   1.398       .  A
C1141      H1148   1.083       .  S
C1142      C1143   1.404       .  A
C1143      C1144   1.400       .  A
C1143      F1150   1.357       .  S
C1144      C1145   1.411       .  A
C1144      H1149   1.081       .  S
C1146      C1945   1.410       .  A
C1146      F1147   1.356       .  S
C1151      C1152   1.404       .  A
C1151      C1156   1.398       .  A
C1151      H1158   1.082       .  S
C1153      C1952   1.401       .  A
C1153      C1154   1.402       .  A
C1153      F1160   1.353       .  S
C1154      C1955   1.406       .  A
C1154      H1159   1.080       .  S
C1155      C1156   1.407       .  A
C1156      F1157   1.356       .  S
C1161      C1162   1.405       .  A
C1161      C1166   1.391       .  A
C1161      H1168   1.083       .  S
C1162      C1163   1.403       .  A
C1163      C1164   1.403       .  A
C1163      F1170   1.357       .  S
C1164      C1165   1.413       .  A
C1164      H1169   1.082       .  S
C1165      C1166   1.407       .  A
C1166      F1167   1.356       .  S
C1171      C1172   1.407       .  A
C1171      C1176   1.396       .  A
C1171      H1178   1.083       .  S
C1172      C1173   1.406       .  A
C1173      C1174   1.399       .  A
C1173      F1180   1.357       .  S
C1174      C1175   1.408       .  A
C1174      H1179   1.082       .  S
C1175      C1176   1.407       .  A
C1176      F1177   1.357       .  S
C1181      C1182   1.404       .  A
C1181      C1186   1.393       .  A
C1181      H1188   1.083       .  S
C1182      C1183   1.409       .  A
C1183      C1184   1.401       .  A
C1183      F1190   1.358       .  S
C1184      C1185   1.408       .  A
C1184      H1189   1.082       .  S
C1185      C1186   1.408       .  A
C1186      F1187   1.356       .  S
C1191      C1192   1.405       .  A
C1191      C1196   1.392       .  A
C1191      H1198   1.083       .  S
C1192      C1193   1.400       .  A
C1193      C1194   1.403       .  A
C1193      F1200   1.355       .  S
C1194      C1195   1.407       .  A
C1194      H1199   1.082       .  S
C1195      C1196   1.397       .  A
C1196      F1197   1.357       .  S
O1201      C1211   1.278       .  A
O1201     Cu1409   2.006       .  S
O1202      C1212   1.280       .  A
O1202     Cu1209   2.008       .  S
O1203      C1213   1.274       .  A
O1203     Cu1409   1.984       .  S
O1204      C1214   1.275       .  A
O1204     Cu1209   1.980       .  S
O1205      C1214   1.280       .  A
O1205     Cu1410   2.026       .  S
O1206      C1213   1.280       .  A
O1206     Cu1210   2.020   1_554  S
O1207      C1212   1.276       .  A
O1207     Cu1410   1.995       .  S
O1208      C1211   1.278       .  A
O1208     Cu1210   1.999   1_554  S
Cu1209     O1401   2.006       .  S
Cu1209     O1403   1.984       .  S
Cu1209    Cu1410   2.370       .  S
Cu1210     O1405   2.026       .  S
Cu1210     O1407   1.995       .  S
Cu1210    Cu1409   2.370   1_556  S
C1211      C1372   1.480       .  S
C1212      C1382   1.479       .  S
C1213      C1392   1.466       .  S
C1214      C1362   1.477       .  S
O1215      C1225   1.279       .  A
O1215     Cu1223   2.014       .  S
O1216      C1226   1.278       .  A
O1217      C1227   1.277       .  A
O1218      C1228   1.277       .  A
O1218     Cu1423   2.006   1_554  S
O1219      C2028   1.279       .  A
O1219     Cu1424   2.015       .  S
O1220      C2027   1.279       .  A
O1221      C2026   1.278       .  A
O1222      C2025   1.278       .  A
O1222     Cu1224   2.001       .  S
Cu1223     O1418   2.006       .  S
Cu1224     O1419   2.015       .  S
Cu1224    Cu2023   2.370       .  S
C1225      C1342   1.481       .  S
C1226      C1332   1.477       .  S
C1227      C1325   1.477       .  S
C1228      C1352   1.477       .  S
C1229      C1231   1.538       .  S
C1229      C1233   1.532       .  S
C1229      C1232   1.543       .  S
C1229      C1299   1.549       .  S
C1230      C1234   1.546       .  S
C1230      C1236   1.549       .  S
C1230      C1235   1.543       .  S
C1230      C1298   1.552       .  S
C1231      C1239   1.378       .  A
C1232      C1243   1.382       .  A
C1233      C1247   1.372       .  A
C1234      C2031   1.389       .  A
C1234      C1237   1.379       .  A
C1235      C2032   1.389       .  A
C1235      C1241   1.384       .  A
C1236      C2033   1.391       .  A
C1236      C1244   1.386       .  A
C1237      H1250   1.079       .  S
C1237      N2038   1.360       .  A
N1238      C1239   1.361       .  A
N1238      C1345   1.449       .  S
C1239      H1240   1.081       .  S
C1241      H1251   1.081       .  S
C1241      N2042   1.364       .  A
N1242      C1243   1.360       .  A
N1242      N1265   1.420       .  S
C1243      H1249   1.081       .  S
C1244      H1246   1.081       .  S
C1244      N2045   1.363       .  A
N1245      C1247   1.352       .  A
N1245      C1355   1.442       .  S
C1247      H1248   1.081       .  S
C1252      C1254   1.536       .  S
C1252      C1256   1.544       .  S
C1252      C1255   1.544       .  S
C1252      C1275   1.552       .  S
C1253      C1257   1.542       .  S
C1253      C1259   1.537       .  S
C1253      C1258   1.541       .  S
C1253      C1276   1.549       .  S
C1254      C1262   1.372       .  A
C1255      C1266   1.384       .  A
C1256      C1270   1.381       .  A
C1257      C2054   1.389       .  A
C1257      C1260   1.380       .  A
C1258      C2055   1.389       .  A
C1258      C1264   1.382       .  A
C1259      C2056   1.390       .  A
C1259      C1267   1.375       .  A
C1260      H1273   1.081       .  S
C1260      N2061   1.362       .  A
N1261      C1262   1.356       .  A
N1261      C1335   1.446       .  S
C1262      H1263   1.078       .  S
C1264      H1274   1.081       .  S
C1264      N2065   1.360       .  A
N1265      C1266   1.364       .  A
C1266      H1272   1.081       .  S
C1267      H1269   1.080       .  S
C1267      N2068   1.357       .  A
N1268      C1270   1.361       .  A
N1268      C1322   1.444       .  S
C1270      H1271   1.081       .  S
C1275      C1277   1.546       .  S
C1275      C1279   1.534       .  S
C1275      C1278   1.543       .  S
C1276      C1280   1.534       .  S
C1276      C1282   1.542       .  S
C1276      C1281   1.540       .  S
C1277      C1285   1.381       .  A
C1277      C1280   1.390       .  A
C1278      C1289   1.382       .  A
C1278      C1281   1.389       .  A
C1279      C1293   1.373       .  A
C1279      C1282   1.388       .  A
C1280      C1283   1.374       .  A
C1281      C1287   1.382       .  A
C1282      C1290   1.378       .  A
C1283      H1296   1.080       .  S
C1283      N1284   1.357       .  A
N1284      C1285   1.361       .  A
N1284      C1375   1.444       .  S
C1285      H1286   1.081       .  S
C1287      H1297   1.081       .  S
C1287      N1288   1.362       .  A
N1288      C1289   1.362       .  A
C1289      H1295   1.081       .  S
C1290      H1292   1.081       .  S
C1290      N1291   1.359       .  A
N1291      C1293   1.360       .  A
N1291      C1365   1.446       .  S
C1293      H1294   1.078       .  S
C1298      C1300   1.541       .  S
C1298      C1302   1.551       .  S
C1298      C1301   1.542       .  S
C1299      C1303   1.536       .  S
C1299      C1305   1.527       .  S
C1299      C1304   1.540       .  S
C1300      C1308   1.382       .  A
C1300      C1303   1.393       .  A
C1301      C1312   1.382       .  A
C1301      C1304   1.389       .  A
C1302      C1316   1.384       .  A
C1302      C1305   1.390       .  A
C1303      C1306   1.373       .  A
C1304      C1310   1.381       .  A
C1305      C1313   1.369       .  A
C1306      H1319   1.082       .  S
C1306      N1307   1.350       .  A
N1307      C1308   1.357       .  A
N1307      C1395   1.430       .  S
C1308      H1309   1.081       .  S
C1310      H1320   1.081       .  S
C1310      N1311   1.362       .  A
N1311      C1312   1.362       .  A
C1312      H1318   1.081       .  S
C1313      H1315   1.079       .  S
C1313      N1314   1.355       .  A
N1314      C1316   1.362       .  A
N1314      C1385   1.443       .  S
C1316      H1317   1.081       .  S
C1321      C1322   1.409       .  A
C1321      C1326   1.400       .  A
C1321      H1328   1.082       .  S
C1323      C2122   1.408       .  A
C1323      C1324   1.397       .  A
C1323      F1330   1.356       .  S
C1324      C2125   1.405       .  A
C1324      H1329   1.083       .  S
C1325      C1326   1.405       .  A
C1326      F1327   1.357       .  S
C1331      C1332   1.404       .  A
C1331      C1336   1.394       .  A
C1331      H1338   1.083       .  S
C1333      C2132   1.405       .  A
C1333      C1334   1.399       .  A
C1333      F1340   1.357       .  S
C1334      C2135   1.410       .  A
C1334      H1339   1.082       .  S
C1335      C1336   1.411       .  A
C1336      F1337   1.356       .  S
C1341      C2142   1.406       .  A
C1341      C1346   1.398       .  A
C1341      H1348   1.083       .  S
C1342      C1343   1.404       .  A
C1343      C1344   1.400       .  A
C1343      F1350   1.357       .  S
C1344      C1345   1.411       .  A
C1344      H1349   1.082       .  S
C1346      C2145   1.410       .  A
C1346      F1347   1.356       .  S
C1351      C1352   1.404       .  A
C1351      C1356   1.398       .  A
C1351      H1358   1.082       .  S
C1353      C2152   1.401       .  A
C1353      C1354   1.402       .  A
C1353      F1360   1.353       .  S
C1354      C2155   1.406       .  A
C1354      H1359   1.080       .  S
C1355      C1356   1.407       .  A
C1356      F1357   1.356       .  S
C1361      C1362   1.405       .  A
C1361      C1366   1.391       .  A
C1361      H1368   1.083       .  S
C1362      C1363   1.403       .  A
C1363      C1364   1.403       .  A
C1363      F1370   1.357       .  S
C1364      C1365   1.413       .  A
C1364      H1369   1.082       .  S
C1365      C1366   1.407       .  A
C1366      F1367   1.356       .  S
C1371      C1372   1.407       .  A
C1371      C1376   1.396       .  A
C1371      H1378   1.083       .  S
C1372      C1373   1.406       .  A
C1373      C1374   1.399       .  A
C1373      F1380   1.357       .  S
C1374      C1375   1.408       .  A
C1374      H1379   1.082       .  S
C1375      C1376   1.407       .  A
C1376      F1377   1.357       .  S
C1381      C1382   1.404       .  A
C1381      C1386   1.393       .  A
C1381      H1388   1.083       .  S
C1382      C1383   1.409       .  A
C1383      C1384   1.401       .  A
C1383      F1390   1.358       .  S
C1384      C1385   1.408       .  A
C1384      H1389   1.082       .  S
C1385      C1386   1.408       .  A
C1386      F1387   1.356       .  S
C1391      C1392   1.405       .  A
C1391      C1396   1.392       .  A
C1391      H1398   1.083       .  S
C1392      C1393   1.400       .  A
C1393      C1394   1.403       .  A
C1393      F1400   1.355       .  S
C1394      C1395   1.407       .  A
C1394      H1399   1.082       .  S
C1395      C1396   1.397       .  A
C1396      F1397   1.357       .  S
O1401      C1411   1.278       .  A
O1402      C1412   1.280       .  A
O1402     Cu1409   2.008   1_556  S
O1403      C1413   1.274       .  A
O1404      C1414   1.275       .  A
O1404     Cu1409   1.980   1_556  S
O1405      C1414   1.280       .  A
O1406      C1413   1.280       .  A
O1406     Cu1410   2.020       .  S
O1407      C1412   1.276       .  A
O1408      C1411   1.278       .  A
O1408     Cu1410   1.999       .  S
C1411      C1572   1.480       .  S
C1412      C1582   1.479       .  S
C1413      C1592   1.466       .  S
C1414      C1562   1.477       .  S
O1415      C1425   1.279       .  A
O1415     Cu1423   2.014       .  S
O1416      C1426   1.278       .  A
O1417      C1427   1.277       .  A
O1418      C1428   1.277       .  A
O1419      C2228   1.279       .  A
O1420      C2227   1.279       .  A
O1421      C2226   1.278       .  A
O1422      C2225   1.278       .  A
O1422     Cu1424   2.001   1_556  S
Cu1424    Cu2223   2.370   1_554  S
C1425      C1542   1.481       .  S
C1426      C1532   1.477       .  S
C1427      C1525   1.477       .  S
C1428      C1552   1.477       .  S
C1429      C1431   1.538       .  S
C1429      C1433   1.532       .  S
C1429      C1432   1.543       .  S
C1429      C1499   1.549       .  S
C1430      C1434   1.546       .  S
C1430      C1436   1.549       .  S
C1430      C1435   1.543       .  S
C1430      C1498   1.552       .  S
C1431      C1439   1.378       .  A
C1432      C1443   1.382       .  A
C1433      C1447   1.372       .  A
C1434      C2231   1.389       .  A
C1434      C1437   1.379       .  A
C1435      C2232   1.389       .  A
C1435      C1441   1.384       .  A
C1436      C2233   1.391       .  A
C1436      C1444   1.386       .  A
C1437      H1450   1.079       .  S
C1437      N2238   1.360       .  A
N1438      C1439   1.361       .  A
N1438      C1545   1.449       .  S
C1439      H1440   1.081       .  S
C1441      H1451   1.081       .  S
C1441      N2242   1.364       .  A
N1442      C1443   1.360       .  A
N1442      N1465   1.420       .  S
C1443      H1449   1.081       .  S
C1444      H1446   1.081       .  S
C1444      N2245   1.363       .  A
N1445      C1447   1.352       .  A
N1445      C1555   1.442       .  S
C1447      H1448   1.081       .  S
C1452      C1454   1.536       .  S
C1452      C1456   1.544       .  S
C1452      C1455   1.544       .  S
C1452      C1475   1.552       .  S
C1453      C1457   1.542       .  S
C1453      C1459   1.537       .  S
C1453      C1458   1.541       .  S
C1453      C1476   1.549       .  S
C1454      C1462   1.372       .  A
C1455      C1466   1.384       .  A
C1456      C1470   1.381       .  A
C1457      C2254   1.389       .  A
C1457      C1460   1.380       .  A
C1458      C2255   1.389       .  A
C1458      C1464   1.382       .  A
C1459      C2256   1.390       .  A
C1459      C1467   1.375       .  A
C1460      H1473   1.081       .  S
C1460      N2261   1.362       .  A
N1461      C1462   1.356       .  A
N1461      C1535   1.446       .  S
C1462      H1463   1.078       .  S
C1464      H1474   1.081       .  S
C1464      N2265   1.360       .  A
N1465      C1466   1.364       .  A
C1466      H1472   1.081       .  S
C1467      H1469   1.080       .  S
C1467      N2268   1.357       .  A
N1468      C1470   1.361       .  A
N1468      C1522   1.444       .  S
C1470      H1471   1.081       .  S
C1475      C1477   1.546       .  S
C1475      C1479   1.534       .  S
C1475      C1478   1.543       .  S
C1476      C1480   1.534       .  S
C1476      C1482   1.542       .  S
C1476      C1481   1.540       .  S
C1477      C1485   1.381       .  A
C1477      C1480   1.390       .  A
C1478      C1489   1.382       .  A
C1478      C1481   1.389       .  A
C1479      C1493   1.373       .  A
C1479      C1482   1.388       .  A
C1480      C1483   1.374       .  A
C1481      C1487   1.382       .  A
C1482      C1490   1.378       .  A
C1483      H1496   1.080       .  S
C1483      N1484   1.357       .  A
N1484      C1485   1.361       .  A
N1484      C1575   1.444       .  S
C1485      H1486   1.081       .  S
C1487      H1497   1.081       .  S
C1487      N1488   1.362       .  A
N1488      C1489   1.362       .  A
C1489      H1495   1.081       .  S
C1490      H1492   1.081       .  S
C1490      N1491   1.359       .  A
N1491      C1493   1.360       .  A
N1491      C1565   1.446       .  S
C1493      H1494   1.078       .  S
C1498      C1500   1.541       .  S
C1498      C1502   1.551       .  S
C1498      C1501   1.542       .  S
C1499      C1503   1.536       .  S
C1499      C1505   1.527       .  S
C1499      C1504   1.540       .  S
C1500      C1508   1.382       .  A
C1500      C1503   1.393       .  A
C1501      C1512   1.382       .  A
C1501      C1504   1.389       .  A
C1502      C1516   1.384       .  A
C1502      C1505   1.390       .  A
C1503      C1506   1.373       .  A
C1504      C1510   1.381       .  A
C1505      C1513   1.369       .  A
C1506      H1519   1.082       .  S
C1506      N1507   1.350       .  A
N1507      C1508   1.357       .  A
N1507      C1595   1.430       .  S
C1508      H1509   1.081       .  S
C1510      H1520   1.081       .  S
C1510      N1511   1.362       .  A
N1511      C1512   1.362       .  A
C1512      H1518   1.081       .  S
C1513      H1515   1.079       .  S
C1513      N1514   1.355       .  A
N1514      C1516   1.362       .  A
N1514      C1585   1.443       .  S
C1516      H1517   1.081       .  S
C1521      C1522   1.409       .  A
C1521      C1526   1.400       .  A
C1521      H1528   1.082       .  S
C1523      C2322   1.408       .  A
C1523      C1524   1.397       .  A
C1523      F1530   1.356       .  S
C1524      C2325   1.405       .  A
C1524      H1529   1.083       .  S
C1525      C1526   1.405       .  A
C1526      F1527   1.357       .  S
C1531      C1532   1.404       .  A
C1531      C1536   1.394       .  A
C1531      H1538   1.083       .  S
C1533      C2332   1.405       .  A
C1533      C1534   1.399       .  A
C1533      F1540   1.357       .  S
C1534      C2335   1.410       .  A
C1534      H1539   1.082       .  S
C1535      C1536   1.411       .  A
C1536      F1537   1.356       .  S
C1541      C2342   1.406       .  A
C1541      C1546   1.398       .  A
C1541      H1548   1.083       .  S
C1542      C1543   1.404       .  A
C1543      C1544   1.400       .  A
C1543      F1550   1.357       .  S
C1544      C1545   1.411       .  A
C1544      H1549   1.081       .  S
C1546      C2345   1.410       .  A
C1546      F1547   1.356       .  S
C1551      C1552   1.404       .  A
C1551      C1556   1.398       .  A
C1551      H1558   1.082       .  S
C1553      C2352   1.401       .  A
C1553      C1554   1.402       .  A
C1553      F1560   1.353       .  S
C1554      C2355   1.406       .  A
C1554      H1559   1.080       .  S
C1555      C1556   1.407       .  A
C1556      F1557   1.356       .  S
C1561      C1562   1.405       .  A
C1561      C1566   1.391       .  A
C1561      H1568   1.083       .  S
C1562      C1563   1.403       .  A
C1563      C1564   1.403       .  A
C1563      F1570   1.357       .  S
C1564      C1565   1.413       .  A
C1564      H1569   1.082       .  S
C1565      C1566   1.407       .  A
C1566      F1567   1.356       .  S
C1571      C1572   1.407       .  A
C1571      C1576   1.396       .  A
C1571      H1578   1.083       .  S
C1572      C1573   1.406       .  A
C1573      C1574   1.399       .  A
C1573      F1580   1.357       .  S
C1574      C1575   1.408       .  A
C1574      H1579   1.082       .  S
C1575      C1576   1.407       .  A
C1576      F1577   1.357       .  S
C1581      C1582   1.404       .  A
C1581      C1586   1.393       .  A
C1581      H1588   1.083       .  S
C1582      C1583   1.409       .  A
C1583      C1584   1.401       .  A
C1583      F1590   1.358       .  S
C1584      C1585   1.408       .  A
C1584      H1589   1.082       .  S
C1585      C1586   1.408       .  A
C1586      F1587   1.356       .  S
C1591      C1592   1.405       .  A
C1591      C1596   1.392       .  A
C1591      H1598   1.083       .  S
C1592      C1593   1.400       .  A
C1593      C1594   1.403       .  A
C1593      F1600   1.355       .  S
C1594      C1595   1.407       .  A
C1594      H1599   1.082       .  S
C1595      C1596   1.397       .  A
C1596      F1597   1.357       .  S
O1601      C1611   1.278       .  A
O1601     Cu1809   2.006       .  S
O1602      C1612   1.280       .  A
O1602     Cu1609   2.008       .  S
O1603      C1613   1.274       .  A
O1603     Cu1809   1.984       .  S
O1604      C1614   1.275       .  A
O1604     Cu1609   1.980       .  S
O1605      C1614   1.280       .  A
O1605     Cu1810   2.026       .  S
O1606      C1613   1.280       .  A
O1606     Cu1610   2.020   1_554  S
O1607      C1612   1.276       .  A
O1607     Cu1810   1.995       .  S
O1608      C1611   1.278       .  A
O1608     Cu1610   1.999   1_554  S
Cu1609     O1801   2.006       .  S
Cu1609     O1803   1.984       .  S
Cu1609    Cu1810   2.370       .  S
Cu1610     O1805   2.026       .  S
Cu1610     O1807   1.995       .  S
Cu1610    Cu1809   2.370   1_556  S
C1611      C1772   1.480       .  S
C1612      C1782   1.479       .  S
C1613      C1792   1.466       .  S
C1614      C1762   1.477       .  S
O1615      C1625   1.279       .  A
O1615     Cu1623   2.014   1_545  S
O1616      C1626   1.278       .  A
O1616     Cu2223   2.001   1_554  S
O1617      C1627   1.277       .  A
O1617     Cu2023   2.004       .  S
O1618      C1628   1.277       .  A
O1618     Cu1823   2.006   1_544  S
O1619      C2428   1.279       .  A
O1619     Cu1824   2.015       .  S
O1620      C2427   1.279       .  A
O1620     Cu2024   2.007       .  S
O1621      C2426   1.278       .  A
O1621     Cu2224   2.007       .  S
O1622      C2425   1.278       .  A
O1622     Cu1624   2.001       .  S
Cu1623     O2216   2.001       .  S
Cu1623     O2017   2.004       .  S
Cu1623     O1818   2.006   1_565  S
Cu1624     O1819   2.015       .  S
Cu1624     O2020   2.007   1_545  S
Cu1624     O2221   2.007   1_545  S
Cu1624    Cu2423   2.370   1_545  S
C1625      C1742   1.481       .  S
C1626      C1732   1.477       .  S
C1627      C1725   1.477       .  S
C1628      C1752   1.477       .  S
C1629      C1631   1.538       .  S
C1629      C1633   1.532       .  S
C1629      C1632   1.543       .  S
C1629      C1699   1.549       .  S
C1630      C1634   1.546       .  S
C1630      C1636   1.549       .  S
C1630      C1635   1.543       .  S
C1630      C1698   1.552       .  S
C1631      C1639   1.378       .  A
C1632      C1643   1.382       .  A
C1633      C1647   1.372       .  A
C1634      C2431   1.389       .  A
C1634      C1637   1.379       .  A
C1635      C2432   1.389       .  A
C1635      C1641   1.384       .  A
C1636      C2433   1.391       .  A
C1636      C1644   1.386       .  A
C1637      H1650   1.079       .  S
C1637      N2438   1.360       .  A
N1638      C1639   1.361       .  A
N1638      C1745   1.449       .  S
C1639      H1640   1.081       .  S
C1641      H1651   1.081       .  S
C1641      N2442   1.364       .  A
N1642      C1643   1.360       .  A
N1642      N1665   1.420       .  S
C1643      H1649   1.081       .  S
C1644      H1646   1.081       .  S
C1644      N2445   1.363       .  A
N1645      C1647   1.352       .  A
N1645      C1755   1.442       .  S
C1647      H1648   1.081       .  S
C1652      C1654   1.536       .  S
C1652      C1656   1.544       .  S
C1652      C1655   1.544       .  S
C1652      C1675   1.552       .  S
C1653      C1657   1.542       .  S
C1653      C1659   1.537       .  S
C1653      C1658   1.541       .  S
C1653      C1676   1.549       .  S
C1654      C1662   1.372       .  A
C1655      C1666   1.384       .  A
C1656      C1670   1.381       .  A
C1657      C2454   1.389       .  A
C1657      C1660   1.380       .  A
C1658      C2455   1.389       .  A
C1658      C1664   1.382       .  A
C1659      C2456   1.390       .  A
C1659      C1667   1.375       .  A
C1660      H1673   1.081       .  S
C1660      N2461   1.362       .  A
N1661      C1662   1.356       .  A
N1661      C1735   1.446       .  S
C1662      H1663   1.078       .  S
C1664      H1674   1.081       .  S
C1664      N2465   1.360       .  A
N1665      C1666   1.364       .  A
C1666      H1672   1.081       .  S
C1667      H1669   1.080       .  S
C1667      N2468   1.357       .  A
N1668      C1670   1.361       .  A
N1668      C1722   1.444       .  S
C1670      H1671   1.081       .  S
C1675      C1677   1.546       .  S
C1675      C1679   1.534       .  S
C1675      C1678   1.543       .  S
C1676      C1680   1.534       .  S
C1676      C1682   1.542       .  S
C1676      C1681   1.540       .  S
C1677      C1685   1.381       .  A
C1677      C1680   1.390       .  A
C1678      C1689   1.382       .  A
C1678      C1681   1.389       .  A
C1679      C1693   1.373       .  A
C1679      C1682   1.388       .  A
C1680      C1683   1.374       .  A
C1681      C1687   1.382       .  A
C1682      C1690   1.378       .  A
C1683      H1696   1.080       .  S
C1683      N1684   1.357       .  A
N1684      C1685   1.361       .  A
N1684      C1775   1.444       .  S
C1685      H1686   1.081       .  S
C1687      H1697   1.081       .  S
C1687      N1688   1.362       .  A
N1688      C1689   1.362       .  A
N1688      N2111   1.418       .  S
C1689      H1695   1.081       .  S
C1690      H1692   1.081       .  S
C1690      N1691   1.359       .  A
N1691      C1693   1.360       .  A
N1691      C1765   1.446       .  S
C1693      H1694   1.078       .  S
C1698      C1700   1.541       .  S
C1698      C1702   1.551       .  S
C1698      C1701   1.542       .  S
C1699      C1703   1.536       .  S
C1699      C1705   1.527       .  S
C1699      C1704   1.540       .  S
C1700      C1708   1.382       .  A
C1700      C1703   1.393       .  A
C1701      C1712   1.382       .  A
C1701      C1704   1.389       .  A
C1702      C1716   1.384       .  A
C1702      C1705   1.390       .  A
C1703      C1706   1.373       .  A
C1704      C1710   1.381       .  A
C1705      C1713   1.369       .  A
C1706      H1719   1.082       .  S
C1706      N1707   1.350       .  A
N1707      C1708   1.357       .  A
N1707      C1795   1.430       .  S
C1708      H1709   1.081       .  S
C1710      H1720   1.081       .  S
C1710      N1711   1.362       .  A
N1711      C1712   1.362       .  A
N1711      N2088   1.418   1_545  S
C1712      H1718   1.081       .  S
C1713      H1715   1.079       .  S
C1713      N1714   1.355       .  A
N1714      C1716   1.362       .  A
N1714      C1785   1.443       .  S
C1716      H1717   1.081       .  S
C1721      C1722   1.409       .  A
C1721      C1726   1.400       .  A
C1721      H1728   1.082       .  S
C1723      C2522   1.408       .  A
C1723      C1724   1.397       .  A
C1723      F1730   1.356       .  S
C1724      C2525   1.405       .  A
C1724      H1729   1.083       .  S
C1725      C1726   1.405       .  A
C1726      F1727   1.357       .  S
C1731      C1732   1.404       .  A
C1731      C1736   1.394       .  A
C1731      H1738   1.083       .  S
C1733      C2532   1.405       .  A
C1733      C1734   1.399       .  A
C1733      F1740   1.357       .  S
C1734      C2535   1.410       .  A
C1734      H1739   1.082       .  S
C1735      C1736   1.411       .  A
C1736      F1737   1.356       .  S
C1741      C2542   1.406       .  A
C1741      C1746   1.398       .  A
C1741      H1748   1.083       .  S
C1742      C1743   1.404       .  A
C1743      C1744   1.400       .  A
C1743      F1750   1.357       .  S
C1744      C1745   1.411       .  A
C1744      H1749   1.082       .  S
C1746      C2545   1.410       .  A
C1746      F1747   1.356       .  S
C1751      C1752   1.404       .  A
C1751      C1756   1.398       .  A
C1751      H1758   1.082       .  S
C1753      C2552   1.401       .  A
C1753      C1754   1.402       .  A
C1753      F1760   1.353       .  S
C1754      C2555   1.406       .  A
C1754      H1759   1.080       .  S
C1755      C1756   1.407       .  A
C1756      F1757   1.356       .  S
C1761      C1762   1.405       .  A
C1761      C1766   1.391       .  A
C1761      H1768   1.083       .  S
C1762      C1763   1.403       .  A
C1763      C1764   1.403       .  A
C1763      F1770   1.357       .  S
C1764      C1765   1.413       .  A
C1764      H1769   1.082       .  S
C1765      C1766   1.407       .  A
C1766      F1767   1.356       .  S
C1771      C1772   1.407       .  A
C1771      C1776   1.396       .  A
C1771      H1778   1.083       .  S
C1772      C1773   1.406       .  A
C1773      C1774   1.399       .  A
C1773      F1780   1.357       .  S
C1774      C1775   1.408       .  A
C1774      H1779   1.082       .  S
C1775      C1776   1.407       .  A
C1776      F1777   1.357       .  S
C1781      C1782   1.404       .  A
C1781      C1786   1.393       .  A
C1781      H1788   1.083       .  S
C1782      C1783   1.409       .  A
C1783      C1784   1.401       .  A
C1783      F1790   1.358       .  S
C1784      C1785   1.408       .  A
C1784      H1789   1.082       .  S
C1785      C1786   1.408       .  A
C1786      F1787   1.356       .  S
C1791      C1792   1.405       .  A
C1791      C1796   1.392       .  A
C1791      H1798   1.083       .  S
C1792      C1793   1.400       .  A
C1793      C1794   1.403       .  A
C1793      F1800   1.355       .  S
C1794      C1795   1.407       .  A
C1794      H1799   1.082       .  S
C1795      C1796   1.397       .  A
C1796      F1797   1.357       .  S
O1801      C1811   1.278       .  A
O1802      C1812   1.280       .  A
O1802     Cu1809   2.008   1_556  S
O1803      C1813   1.274       .  A
O1804      C1814   1.275       .  A
O1804     Cu1809   1.980   1_556  S
O1805      C1814   1.280       .  A
O1806      C1813   1.280       .  A
O1806     Cu1810   2.020       .  S
O1807      C1812   1.276       .  A
O1808      C1811   1.278       .  A
O1808     Cu1810   1.999       .  S
C1811      C1972   1.480       .  S
C1812      C1982   1.479       .  S
C1813      C1992   1.466       .  S
C1814      C1962   1.477       .  S
O1815      C1825   1.279       .  A
O1815     Cu1823   2.014   1_545  S
O1816      C1826   1.278       .  A
O1816     Cu2023   2.001       .  S
O1817      C1827   1.277       .  A
O1817     Cu2223   2.004       .  S
O1818      C1828   1.277       .  A
O1819      C2628   1.279       .  A
O1820      C2627   1.279       .  A
O1820     Cu2224   2.007   1_556  S
O1821      C2626   1.278       .  A
O1821     Cu2024   2.007       .  S
O1822      C2625   1.278       .  A
O1822     Cu1824   2.001   1_556  S
Cu1823     O2016   2.001   1_556  S
Cu1823     O2217   2.004       .  S
Cu1824     O2220   2.007   1_544  S
Cu1824     O2021   2.007   1_545  S
Cu1824    Cu2623   2.370   1_544  S
C1825      C1942   1.481       .  S
C1826      C1932   1.477       .  S
C1827      C1925   1.477       .  S
C1828      C1952   1.477       .  S
C1829      C1831   1.538       .  S
C1829      C1833   1.532       .  S
C1829      C1832   1.543       .  S
C1829      C1899   1.549       .  S
C1830      C1834   1.546       .  S
C1830      C1836   1.549       .  S
C1830      C1835   1.543       .  S
C1830      C1898   1.552       .  S
C1831      C1839   1.378       .  A
C1832      C1843   1.382       .  A
C1833      C1847   1.372       .  A
C1834      C2631   1.389       .  A
C1834      C1837   1.379       .  A
C1835      C2632   1.389       .  A
C1835      C1841   1.384       .  A
C1836      C2633   1.391       .  A
C1836      C1844   1.386       .  A
C1837      H1850   1.079       .  S
C1837      N2638   1.360       .  A
N1838      C1839   1.361       .  A
N1838      C1945   1.449       .  S
C1839      H1840   1.081       .  S
C1841      H1851   1.081       .  S
C1841      N2642   1.364       .  A
N1842      C1843   1.360       .  A
N1842      N1865   1.420       .  S
C1843      H1849   1.081       .  S
C1844      H1846   1.081       .  S
C1844      N2645   1.363       .  A
N1845      C1847   1.352       .  A
N1845      C1955   1.442       .  S
C1847      H1848   1.081       .  S
C1852      C1854   1.536       .  S
C1852      C1856   1.544       .  S
C1852      C1855   1.544       .  S
C1852      C1875   1.552       .  S
C1853      C1857   1.542       .  S
C1853      C1859   1.537       .  S
C1853      C1858   1.541       .  S
C1853      C1876   1.549       .  S
C1854      C1862   1.372       .  A
C1855      C1866   1.384       .  A
C1856      C1870   1.381       .  A
C1857      C2654   1.389       .  A
C1857      C1860   1.380       .  A
C1858      C2655   1.389       .  A
C1858      C1864   1.382       .  A
C1859      C2656   1.390       .  A
C1859      C1867   1.375       .  A
C1860      H1873   1.081       .  S
C1860      N2661   1.362       .  A
N1861      C1862   1.356       .  A
N1861      C1935   1.446       .  S
C1862      H1863   1.078       .  S
C1864      H1874   1.081       .  S
C1864      N2665   1.360       .  A
N1865      C1866   1.364       .  A
C1866      H1872   1.081       .  S
C1867      H1869   1.080       .  S
C1867      N2668   1.357       .  A
N1868      C1870   1.361       .  A
N1868      C1922   1.444       .  S
C1870      H1871   1.081       .  S
C1875      C1877   1.546       .  S
C1875      C1879   1.534       .  S
C1875      C1878   1.543       .  S
C1876      C1880   1.534       .  S
C1876      C1882   1.542       .  S
C1876      C1881   1.540       .  S
C1877      C1885   1.381       .  A
C1877      C1880   1.390       .  A
C1878      C1889   1.382       .  A
C1878      C1881   1.389       .  A
C1879      C1893   1.373       .  A
C1879      C1882   1.388       .  A
C1880      C1883   1.374       .  A
C1881      C1887   1.382       .  A
C1882      C1890   1.378       .  A
C1883      H1896   1.080       .  S
C1883      N1884   1.357       .  A
N1884      C1885   1.361       .  A
N1884      C1975   1.444       .  S
C1885      H1886   1.081       .  S
C1887      H1897   1.081       .  S
C1887      N1888   1.362       .  A
N1888      C1889   1.362       .  A
N1888      N2311   1.418       .  S
C1889      H1895   1.081       .  S
C1890      H1892   1.081       .  S
C1890      N1891   1.359       .  A
N1891      C1893   1.360       .  A
N1891      C1965   1.446       .  S
C1893      H1894   1.078       .  S
C1898      C1900   1.541       .  S
C1898      C1902   1.551       .  S
C1898      C1901   1.542       .  S
C1899      C1903   1.536       .  S
C1899      C1905   1.527       .  S
C1899      C1904   1.540       .  S
C1900      C1908   1.382       .  A
C1900      C1903   1.393       .  A
C1901      C1912   1.382       .  A
C1901      C1904   1.389       .  A
C1902      C1916   1.384       .  A
C1902      C1905   1.390       .  A
C1903      C1906   1.373       .  A
C1904      C1910   1.381       .  A
C1905      C1913   1.369       .  A
C1906      H1919   1.082       .  S
C1906      N1907   1.350       .  A
N1907      C1908   1.357       .  A
N1907      C1995   1.430       .  S
C1908      H1909   1.081       .  S
C1910      H1920   1.081       .  S
C1910      N1911   1.362       .  A
N1911      C1912   1.362       .  A
N1911      N2288   1.418   1_545  S
C1912      H1918   1.081       .  S
C1913      H1915   1.079       .  S
C1913      N1914   1.355       .  A
N1914      C1916   1.362       .  A
N1914      C1985   1.443       .  S
C1916      H1917   1.081       .  S
C1921      C1922   1.409       .  A
C1921      C1926   1.400       .  A
C1921      H1928   1.082       .  S
C1923      C2722   1.408       .  A
C1923      C1924   1.397       .  A
C1923      F1930   1.356       .  S
C1924      C2725   1.405       .  A
C1924      H1929   1.083       .  S
C1925      C1926   1.405       .  A
C1926      F1927   1.357       .  S
C1931      C1932   1.404       .  A
C1931      C1936   1.394       .  A
C1931      H1938   1.083       .  S
C1933      C2732   1.405       .  A
C1933      C1934   1.399       .  A
C1933      F1940   1.357       .  S
C1934      C2735   1.410       .  A
C1934      H1939   1.082       .  S
C1935      C1936   1.411       .  A
C1936      F1937   1.356       .  S
C1941      C2742   1.406       .  A
C1941      C1946   1.398       .  A
C1941      H1948   1.083       .  S
C1942      C1943   1.404       .  A
C1943      C1944   1.400       .  A
C1943      F1950   1.357       .  S
C1944      C1945   1.411       .  A
C1944      H1949   1.081       .  S
C1946      C2745   1.410       .  A
C1946      F1947   1.356       .  S
C1951      C1952   1.404       .  A
C1951      C1956   1.398       .  A
C1951      H1958   1.082       .  S
C1953      C2752   1.401       .  A
C1953      C1954   1.402       .  A
C1953      F1960   1.353       .  S
C1954      C2755   1.406       .  A
C1954      H1959   1.080       .  S
C1955      C1956   1.407       .  A
C1956      F1957   1.356       .  S
C1961      C1962   1.405       .  A
C1961      C1966   1.391       .  A
C1961      H1968   1.083       .  S
C1962      C1963   1.403       .  A
C1963      C1964   1.403       .  A
C1963      F1970   1.357       .  S
C1964      C1965   1.413       .  A
C1964      H1969   1.082       .  S
C1965      C1966   1.407       .  A
C1966      F1967   1.356       .  S
C1971      C1972   1.407       .  A
C1971      C1976   1.396       .  A
C1971      H1978   1.083       .  S
C1972      C1973   1.406       .  A
C1973      C1974   1.399       .  A
C1973      F1980   1.357       .  S
C1974      C1975   1.408       .  A
C1974      H1979   1.082       .  S
C1975      C1976   1.407       .  A
C1976      F1977   1.357       .  S
C1981      C1982   1.404       .  A
C1981      C1986   1.393       .  A
C1981      H1988   1.083       .  S
C1982      C1983   1.409       .  A
C1983      C1984   1.401       .  A
C1983      F1990   1.358       .  S
C1984      C1985   1.408       .  A
C1984      H1989   1.082       .  S
C1985      C1986   1.408       .  A
C1986      F1987   1.356       .  S
C1991      C1992   1.405       .  A
C1991      C1996   1.392       .  A
C1991      H1998   1.083       .  S
C1992      C1993   1.400       .  A
C1993      C1994   1.403       .  A
C1993      F2000   1.355       .  S
C1994      C1995   1.407       .  A
C1994      H1999   1.082       .  S
C1995      C1996   1.397       .  A
C1996      F1997   1.357       .  S
O2001      C2011   1.278       .  A
O2001     Cu2209   2.006       .  S
O2002      C2012   1.280       .  A
O2002     Cu2009   2.008       .  S
O2003      C2013   1.274       .  A
O2003     Cu2209   1.984       .  S
O2004      C2014   1.275       .  A
O2004     Cu2009   1.980       .  S
O2005      C2014   1.280       .  A
O2005     Cu2210   2.026       .  S
O2006      C2013   1.280       .  A
O2006     Cu2010   2.020   1_554  S
O2007      C2012   1.276       .  A
O2007     Cu2210   1.995       .  S
O2008      C2011   1.278       .  A
O2008     Cu2010   1.999   1_554  S
Cu2009     O2201   2.006       .  S
Cu2009     O2203   1.984       .  S
Cu2009    Cu2210   2.370       .  S
Cu2010     O2205   2.026       .  S
Cu2010     O2207   1.995       .  S
Cu2010    Cu2209   2.370   1_556  S
C2011      C2172   1.480       .  S
C2012      C2182   1.479       .  S
C2013      C2192   1.466       .  S
C2014      C2162   1.477       .  S
O2015      C2025   1.279       .  A
O2015     Cu2023   2.014       .  S
O2016      C2026   1.278       .  A
O2017      C2027   1.277       .  A
O2018      C2028   1.277       .  A
O2018     Cu2223   2.006   1_554  S
O2019      C2828   1.279       .  A
O2019     Cu2224   2.015       .  S
O2020      C2827   1.279       .  A
O2021      C2826   1.278       .  A
O2022      C2825   1.278       .  A
O2022     Cu2024   2.001       .  S
Cu2023     O2218   2.006       .  S
Cu2024     O2219   2.015       .  S
Cu2024    Cu2823   2.370       .  S
C2025      C2142   1.481       .  S
C2026      C2132   1.477       .  S
C2027      C2125   1.477       .  S
C2028      C2152   1.477       .  S
C2029      C2031   1.538       .  S
C2029      C2033   1.532       .  S
C2029      C2032   1.543       .  S
C2029      C2099   1.549       .  S
C2030      C2034   1.546       .  S
C2030      C2036   1.549       .  S
C2030      C2035   1.543       .  S
C2030      C2098   1.552       .  S
C2031      C2039   1.378       .  A
C2032      C2043   1.382       .  A
C2033      C2047   1.372       .  A
C2034      C2831   1.389       .  A
C2034      C2037   1.379       .  A
C2035      C2832   1.389       .  A
C2035      C2041   1.384       .  A
C2036      C2833   1.391       .  A
C2036      C2044   1.386       .  A
C2037      H2050   1.079       .  S
C2037      N2838   1.360       .  A
N2038      C2039   1.361       .  A
N2038      C2145   1.449       .  S
C2039      H2040   1.081       .  S
C2041      H2051   1.081       .  S
C2041      N2842   1.364       .  A
N2042      C2043   1.360       .  A
N2042      N2065   1.420       .  S
C2043      H2049   1.081       .  S
C2044      H2046   1.081       .  S
C2044      N2845   1.363       .  A
N2045      C2047   1.352       .  A
N2045      C2155   1.442       .  S
C2047      H2048   1.081       .  S
C2052      C2054   1.536       .  S
C2052      C2056   1.544       .  S
C2052      C2055   1.544       .  S
C2052      C2075   1.552       .  S
C2053      C2057   1.542       .  S
C2053      C2059   1.537       .  S
C2053      C2058   1.541       .  S
C2053      C2076   1.549       .  S
C2054      C2062   1.372       .  A
C2055      C2066   1.384       .  A
C2056      C2070   1.381       .  A
C2057      C2854   1.389       .  A
C2057      C2060   1.380       .  A
C2058      C2855   1.389       .  A
C2058      C2064   1.382       .  A
C2059      C2856   1.390       .  A
C2059      C2067   1.375       .  A
C2060      H2073   1.081       .  S
C2060      N2861   1.362       .  A
N2061      C2062   1.356       .  A
N2061      C2135   1.446       .  S
C2062      H2063   1.078       .  S
C2064      H2074   1.081       .  S
C2064      N2865   1.360       .  A
N2065      C2066   1.364       .  A
C2066      H2072   1.081       .  S
C2067      H2069   1.080       .  S
C2067      N2868   1.357       .  A
N2068      C2070   1.361       .  A
N2068      C2122   1.444       .  S
C2070      H2071   1.081       .  S
C2075      C2077   1.546       .  S
C2075      C2079   1.534       .  S
C2075      C2078   1.543       .  S
C2076      C2080   1.534       .  S
C2076      C2082   1.542       .  S
C2076      C2081   1.540       .  S
C2077      C2085   1.381       .  A
C2077      C2080   1.390       .  A
C2078      C2089   1.382       .  A
C2078      C2081   1.389       .  A
C2079      C2093   1.373       .  A
C2079      C2082   1.388       .  A
C2080      C2083   1.374       .  A
C2081      C2087   1.382       .  A
C2082      C2090   1.378       .  A
C2083      H2096   1.080       .  S
C2083      N2084   1.357       .  A
N2084      C2085   1.361       .  A
N2084      C2175   1.444       .  S
C2085      H2086   1.081       .  S
C2087      H2097   1.081       .  S
C2087      N2088   1.362       .  A
N2088      C2089   1.362       .  A
C2089      H2095   1.081       .  S
C2090      H2092   1.081       .  S
C2090      N2091   1.359       .  A
N2091      C2093   1.360       .  A
N2091      C2165   1.446       .  S
C2093      H2094   1.078       .  S
C2098      C2100   1.541       .  S
C2098      C2102   1.551       .  S
C2098      C2101   1.542       .  S
C2099      C2103   1.536       .  S
C2099      C2105   1.527       .  S
C2099      C2104   1.540       .  S
C2100      C2108   1.382       .  A
C2100      C2103   1.393       .  A
C2101      C2112   1.382       .  A
C2101      C2104   1.389       .  A
C2102      C2116   1.384       .  A
C2102      C2105   1.390       .  A
C2103      C2106   1.373       .  A
C2104      C2110   1.381       .  A
C2105      C2113   1.369       .  A
C2106      H2119   1.082       .  S
C2106      N2107   1.350       .  A
N2107      C2108   1.357       .  A
N2107      C2195   1.430       .  S
C2108      H2109   1.081       .  S
C2110      H2120   1.081       .  S
C2110      N2111   1.362       .  A
N2111      C2112   1.362       .  A
C2112      H2118   1.081       .  S
C2113      H2115   1.079       .  S
C2113      N2114   1.355       .  A
N2114      C2116   1.362       .  A
N2114      C2185   1.443       .  S
C2116      H2117   1.081       .  S
C2121      C2122   1.409       .  A
C2121      C2126   1.400       .  A
C2121      H2128   1.082       .  S
C2123      C2922   1.408       .  A
C2123      C2124   1.397       .  A
C2123      F2130   1.356       .  S
C2124      C2925   1.405       .  A
C2124      H2129   1.083       .  S
C2125      C2126   1.405       .  A
C2126      F2127   1.357       .  S
C2131      C2132   1.404       .  A
C2131      C2136   1.394       .  A
C2131      H2138   1.083       .  S
C2133      C2932   1.405       .  A
C2133      C2134   1.399       .  A
C2133      F2140   1.357       .  S
C2134      C2935   1.410       .  A
C2134      H2139   1.082       .  S
C2135      C2136   1.411       .  A
C2136      F2137   1.356       .  S
C2141      C2942   1.406       .  A
C2141      C2146   1.398       .  A
C2141      H2148   1.083       .  S
C2142      C2143   1.404       .  A
C2143      C2144   1.400       .  A
C2143      F2150   1.357       .  S
C2144      C2145   1.411       .  A
C2144      H2149   1.082       .  S
C2146      C2945   1.410       .  A
C2146      F2147   1.356       .  S
C2151      C2152   1.404       .  A
C2151      C2156   1.398       .  A
C2151      H2158   1.082       .  S
C2153      C2952   1.401       .  A
C2153      C2154   1.402       .  A
C2153      F2160   1.353       .  S
C2154      C2955   1.406       .  A
C2154      H2159   1.080       .  S
C2155      C2156   1.407       .  A
C2156      F2157   1.356       .  S
C2161      C2162   1.405       .  A
C2161      C2166   1.391       .  A
C2161      H2168   1.083       .  S
C2162      C2163   1.403       .  A
C2163      C2164   1.403       .  A
C2163      F2170   1.357       .  S
C2164      C2165   1.413       .  A
C2164      H2169   1.082       .  S
C2165      C2166   1.407       .  A
C2166      F2167   1.356       .  S
C2171      C2172   1.407       .  A
C2171      C2176   1.396       .  A
C2171      H2178   1.083       .  S
C2172      C2173   1.406       .  A
C2173      C2174   1.399       .  A
C2173      F2180   1.357       .  S
C2174      C2175   1.408       .  A
C2174      H2179   1.082       .  S
C2175      C2176   1.407       .  A
C2176      F2177   1.357       .  S
C2181      C2182   1.404       .  A
C2181      C2186   1.393       .  A
C2181      H2188   1.083       .  S
C2182      C2183   1.409       .  A
C2183      C2184   1.401       .  A
C2183      F2190   1.358       .  S
C2184      C2185   1.408       .  A
C2184      H2189   1.082       .  S
C2185      C2186   1.408       .  A
C2186      F2187   1.356       .  S
C2191      C2192   1.405       .  A
C2191      C2196   1.392       .  A
C2191      H2198   1.083       .  S
C2192      C2193   1.400       .  A
C2193      C2194   1.403       .  A
C2193      F2200   1.355       .  S
C2194      C2195   1.407       .  A
C2194      H2199   1.082       .  S
C2195      C2196   1.397       .  A
C2196      F2197   1.357       .  S
O2201      C2211   1.278       .  A
O2202      C2212   1.280       .  A
O2202     Cu2209   2.008   1_556  S
O2203      C2213   1.274       .  A
O2204      C2214   1.275       .  A
O2204     Cu2209   1.980   1_556  S
O2205      C2214   1.280       .  A
O2206      C2213   1.280       .  A
O2206     Cu2210   2.020       .  S
O2207      C2212   1.276       .  A
O2208      C2211   1.278       .  A
O2208     Cu2210   1.999       .  S
C2211      C2372   1.480       .  S
C2212      C2382   1.479       .  S
C2213      C2392   1.466       .  S
C2214      C2362   1.477       .  S
O2215      C2225   1.279       .  A
O2215     Cu2223   2.014       .  S
O2216      C2226   1.278       .  A
O2217      C2227   1.277       .  A
O2218      C2228   1.277       .  A
O2219      C3028   1.279       .  A
O2220      C3027   1.279       .  A
O2221      C3026   1.278       .  A
O2222      C3025   1.278       .  A
O2222     Cu2224   2.001   1_556  S
Cu2224    Cu3023   2.370   1_554  S
C2225      C2342   1.481       .  S
C2226      C2332   1.477       .  S
C2227      C2325   1.477       .  S
C2228      C2352   1.477       .  S
C2229      C2231   1.538       .  S
C2229      C2233   1.532       .  S
C2229      C2232   1.543       .  S
C2229      C2299   1.549       .  S
C2230      C2234   1.546       .  S
C2230      C2236   1.549       .  S
C2230      C2235   1.543       .  S
C2230      C2298   1.552       .  S
C2231      C2239   1.378       .  A
C2232      C2243   1.382       .  A
C2233      C2247   1.372       .  A
C2234      C3031   1.389       .  A
C2234      C2237   1.379       .  A
C2235      C3032   1.389       .  A
C2235      C2241   1.384       .  A
C2236      C3033   1.391       .  A
C2236      C2244   1.386       .  A
C2237      H2250   1.079       .  S
C2237      N3038   1.360       .  A
N2238      C2239   1.361       .  A
N2238      C2345   1.449       .  S
C2239      H2240   1.081       .  S
C2241      H2251   1.081       .  S
C2241      N3042   1.364       .  A
N2242      C2243   1.360       .  A
N2242      N2265   1.420       .  S
C2243      H2249   1.081       .  S
C2244      H2246   1.081       .  S
C2244      N3045   1.363       .  A
N2245      C2247   1.352       .  A
N2245      C2355   1.442       .  S
C2247      H2248   1.081       .  S
C2252      C2254   1.536       .  S
C2252      C2256   1.544       .  S
C2252      C2255   1.544       .  S
C2252      C2275   1.552       .  S
C2253      C2257   1.542       .  S
C2253      C2259   1.537       .  S
C2253      C2258   1.541       .  S
C2253      C2276   1.549       .  S
C2254      C2262   1.372       .  A
C2255      C2266   1.384       .  A
C2256      C2270   1.381       .  A
C2257      C3054   1.389       .  A
C2257      C2260   1.380       .  A
C2258      C3055   1.389       .  A
C2258      C2264   1.382       .  A
C2259      C3056   1.390       .  A
C2259      C2267   1.375       .  A
C2260      H2273   1.081       .  S
C2260      N3061   1.362       .  A
N2261      C2262   1.356       .  A
N2261      C2335   1.446       .  S
C2262      H2263   1.078       .  S
C2264      H2274   1.081       .  S
C2264      N3065   1.360       .  A
N2265      C2266   1.364       .  A
C2266      H2272   1.081       .  S
C2267      H2269   1.080       .  S
C2267      N3068   1.357       .  A
N2268      C2270   1.361       .  A
N2268      C2322   1.444       .  S
C2270      H2271   1.081       .  S
C2275      C2277   1.546       .  S
C2275      C2279   1.534       .  S
C2275      C2278   1.543       .  S
C2276      C2280   1.534       .  S
C2276      C2282   1.542       .  S
C2276      C2281   1.540       .  S
C2277      C2285   1.381       .  A
C2277      C2280   1.390       .  A
C2278      C2289   1.382       .  A
C2278      C2281   1.389       .  A
C2279      C2293   1.373       .  A
C2279      C2282   1.388       .  A
C2280      C2283   1.374       .  A
C2281      C2287   1.382       .  A
C2282      C2290   1.378       .  A
C2283      H2296   1.080       .  S
C2283      N2284   1.357       .  A
N2284      C2285   1.361       .  A
N2284      C2375   1.444       .  S
C2285      H2286   1.081       .  S
C2287      H2297   1.081       .  S
C2287      N2288   1.362       .  A
N2288      C2289   1.362       .  A
C2289      H2295   1.081       .  S
C2290      H2292   1.081       .  S
C2290      N2291   1.359       .  A
N2291      C2293   1.360       .  A
N2291      C2365   1.446       .  S
C2293      H2294   1.078       .  S
C2298      C2300   1.541       .  S
C2298      C2302   1.551       .  S
C2298      C2301   1.542       .  S
C2299      C2303   1.536       .  S
C2299      C2305   1.527       .  S
C2299      C2304   1.540       .  S
C2300      C2308   1.382       .  A
C2300      C2303   1.393       .  A
C2301      C2312   1.382       .  A
C2301      C2304   1.389       .  A
C2302      C2316   1.384       .  A
C2302      C2305   1.390       .  A
C2303      C2306   1.373       .  A
C2304      C2310   1.381       .  A
C2305      C2313   1.369       .  A
C2306      H2319   1.082       .  S
C2306      N2307   1.350       .  A
N2307      C2308   1.357       .  A
N2307      C2395   1.430       .  S
C2308      H2309   1.081       .  S
C2310      H2320   1.081       .  S
C2310      N2311   1.362       .  A
N2311      C2312   1.362       .  A
C2312      H2318   1.081       .  S
C2313      H2315   1.079       .  S
C2313      N2314   1.355       .  A
N2314      C2316   1.362       .  A
N2314      C2385   1.443       .  S
C2316      H2317   1.081       .  S
C2321      C2322   1.409       .  A
C2321      C2326   1.400       .  A
C2321      H2328   1.082       .  S
C2323      C3122   1.408       .  A
C2323      C2324   1.397       .  A
C2323      F2330   1.356       .  S
C2324      C3125   1.405       .  A
C2324      H2329   1.083       .  S
C2325      C2326   1.405       .  A
C2326      F2327   1.357       .  S
C2331      C2332   1.404       .  A
C2331      C2336   1.394       .  A
C2331      H2338   1.083       .  S
C2333      C3132   1.405       .  A
C2333      C2334   1.399       .  A
C2333      F2340   1.357       .  S
C2334      C3135   1.410       .  A
C2334      H2339   1.082       .  S
C2335      C2336   1.411       .  A
C2336      F2337   1.356       .  S
C2341      C3142   1.406       .  A
C2341      C2346   1.398       .  A
C2341      H2348   1.083       .  S
C2342      C2343   1.404       .  A
C2343      C2344   1.400       .  A
C2343      F2350   1.357       .  S
C2344      C2345   1.411       .  A
C2344      H2349   1.082       .  S
C2346      C3145   1.410       .  A
C2346      F2347   1.356       .  S
C2351      C2352   1.404       .  A
C2351      C2356   1.398       .  A
C2351      H2358   1.082       .  S
C2353      C3152   1.401       .  A
C2353      C2354   1.402       .  A
C2353      F2360   1.353       .  S
C2354      C3155   1.406       .  A
C2354      H2359   1.080       .  S
C2355      C2356   1.407       .  A
C2356      F2357   1.356       .  S
C2361      C2362   1.405       .  A
C2361      C2366   1.391       .  A
C2361      H2368   1.083       .  S
C2362      C2363   1.403       .  A
C2363      C2364   1.403       .  A
C2363      F2370   1.357       .  S
C2364      C2365   1.413       .  A
C2364      H2369   1.082       .  S
C2365      C2366   1.407       .  A
C2366      F2367   1.356       .  S
C2371      C2372   1.407       .  A
C2371      C2376   1.396       .  A
C2371      H2378   1.083       .  S
C2372      C2373   1.406       .  A
C2373      C2374   1.399       .  A
C2373      F2380   1.357       .  S
C2374      C2375   1.408       .  A
C2374      H2379   1.082       .  S
C2375      C2376   1.407       .  A
C2376      F2377   1.357       .  S
C2381      C2382   1.404       .  A
C2381      C2386   1.393       .  A
C2381      H2388   1.083       .  S
C2382      C2383   1.409       .  A
C2383      C2384   1.401       .  A
C2383      F2390   1.358       .  S
C2384      C2385   1.408       .  A
C2384      H2389   1.082       .  S
C2385      C2386   1.408       .  A
C2386      F2387   1.356       .  S
C2391      C2392   1.405       .  A
C2391      C2396   1.392       .  A
C2391      H2398   1.083       .  S
C2392      C2393   1.400       .  A
C2393      C2394   1.403       .  A
C2393      F2400   1.355       .  S
C2394      C2395   1.407       .  A
C2394      H2399   1.082       .  S
C2395      C2396   1.397       .  A
C2396      F2397   1.357       .  S
O2401      C2411   1.278       .  A
O2401     Cu2609   2.006       .  S
O2402      C2412   1.280       .  A
O2402     Cu2409   2.008       .  S
O2403      C2413   1.274       .  A
O2403     Cu2609   1.984       .  S
O2404      C2414   1.275       .  A
O2404     Cu2409   1.980       .  S
O2405      C2414   1.280       .  A
O2405     Cu2610   2.026       .  S
O2406      C2413   1.280       .  A
O2406     Cu2410   2.020   1_554  S
O2407      C2412   1.276       .  A
O2407     Cu2610   1.995       .  S
O2408      C2411   1.278       .  A
O2408     Cu2410   1.999   1_554  S
Cu2409     O2601   2.006       .  S
Cu2409     O2603   1.984       .  S
Cu2409    Cu2610   2.370       .  S
Cu2410     O2605   2.026       .  S
Cu2410     O2607   1.995       .  S
Cu2410    Cu2609   2.370   1_556  S
C2411      C2572   1.480       .  S
C2412      C2582   1.479       .  S
C2413      C2592   1.466       .  S
C2414      C2562   1.477       .  S
O2415      C2425   1.279       .  A
O2415     Cu2423   2.014   1_545  S
O2416      C2426   1.278       .  A
O2416     Cu3023   2.001   1_554  S
O2417      C2427   1.277       .  A
O2417     Cu2823   2.004       .  S
O2418      C2428   1.277       .  A
O2418     Cu2623   2.006   1_544  S
O2419     Cu2624   2.015       .  S
O2420     Cu2824   2.007       .  S
O2421     Cu3024   2.007       .  S
O2422     Cu2424   2.001       .  S
Cu2423     O3016   2.001       .  S
Cu2423     O2817   2.004       .  S
Cu2423     O2618   2.006   1_565  S
Cu2424     O2619   2.015       .  S
Cu2424     O2820   2.007   1_545  S
Cu2424     O3021   2.007   1_545  S
C2425      C2542   1.481       .  S
C2426      C2532   1.477       .  S
C2427      C2525   1.477       .  S
C2428      C2552   1.477       .  S
C2429      C2431   1.538       .  S
C2429      C2433   1.532       .  S
C2429      C2432   1.543       .  S
C2429      C2499   1.549       .  S
C2430      C2434   1.546       .  S
C2430      C2436   1.549       .  S
C2430      C2435   1.543       .  S
C2430      C2498   1.552       .  S
C2431      C2439   1.378       .  A
C2432      C2443   1.382       .  A
C2433      C2447   1.372       .  A
C2434      C2437   1.379       .  A
C2435      C2441   1.384       .  A
C2436      C2444   1.386       .  A
C2437      H2450   1.079       .  S
N2438      C2439   1.361       .  A
N2438      C2545   1.449       .  S
C2439      H2440   1.081       .  S
C2441      H2451   1.081       .  S
N2442      C2443   1.360       .  A
N2442      N2465   1.420       .  S
C2443      H2449   1.081       .  S
C2444      H2446   1.081       .  S
N2445      C2447   1.352       .  A
N2445      C2555   1.442       .  S
C2447      H2448   1.081       .  S
C2452      C2454   1.536       .  S
C2452      C2456   1.544       .  S
C2452      C2455   1.544       .  S
C2452      C2475   1.552       .  S
C2453      C2457   1.542       .  S
C2453      C2459   1.537       .  S
C2453      C2458   1.541       .  S
C2453      C2476   1.549       .  S
C2454      C2462   1.372       .  A
C2455      C2466   1.384       .  A
C2456      C2470   1.381       .  A
C2457      C2460   1.380       .  A
C2458      C2464   1.382       .  A
C2459      C2467   1.375       .  A
C2460      H2473   1.081       .  S
N2461      C2462   1.356       .  A
N2461      C2535   1.446       .  S
C2462      H2463   1.078       .  S
C2464      H2474   1.081       .  S
N2465      C2466   1.364       .  A
C2466      H2472   1.081       .  S
C2467      H2469   1.080       .  S
N2468      C2470   1.361       .  A
N2468      C2522   1.444       .  S
C2470      H2471   1.081       .  S
C2475      C2477   1.546       .  S
C2475      C2479   1.534       .  S
C2475      C2478   1.543       .  S
C2476      C2480   1.534       .  S
C2476      C2482   1.542       .  S
C2476      C2481   1.540       .  S
C2477      C2485   1.381       .  A
C2477      C2480   1.390       .  A
C2478      C2489   1.382       .  A
C2478      C2481   1.389       .  A
C2479      C2493   1.373       .  A
C2479      C2482   1.388       .  A
C2480      C2483   1.374       .  A
C2481      C2487   1.382       .  A
C2482      C2490   1.378       .  A
C2483      H2496   1.080       .  S
C2483      N2484   1.357       .  A
N2484      C2485   1.361       .  A
N2484      C2575   1.444       .  S
C2485      H2486   1.081       .  S
C2487      H2497   1.081       .  S
C2487      N2488   1.362       .  A
N2488      C2489   1.362       .  A
N2488      N2911   1.418       .  S
C2489      H2495   1.081       .  S
C2490      H2492   1.081       .  S
C2490      N2491   1.359       .  A
N2491      C2493   1.360       .  A
N2491      C2565   1.446       .  S
C2493      H2494   1.078       .  S
C2498      C2500   1.541       .  S
C2498      C2502   1.551       .  S
C2498      C2501   1.542       .  S
C2499      C2503   1.536       .  S
C2499      C2505   1.527       .  S
C2499      C2504   1.540       .  S
C2500      C2508   1.382       .  A
C2500      C2503   1.393       .  A
C2501      C2512   1.382       .  A
C2501      C2504   1.389       .  A
C2502      C2516   1.384       .  A
C2502      C2505   1.390       .  A
C2503      C2506   1.373       .  A
C2504      C2510   1.381       .  A
C2505      C2513   1.369       .  A
C2506      H2519   1.082       .  S
C2506      N2507   1.350       .  A
N2507      C2508   1.357       .  A
N2507      C2595   1.430       .  S
C2508      H2509   1.081       .  S
C2510      H2520   1.081       .  S
C2510      N2511   1.362       .  A
N2511      C2512   1.362       .  A
N2511      N2888   1.418   1_545  S
C2512      H2518   1.081       .  S
C2513      H2515   1.079       .  S
C2513      N2514   1.355       .  A
N2514      C2516   1.362       .  A
N2514      C2585   1.443       .  S
C2516      H2517   1.081       .  S
C2521      C2522   1.409       .  A
C2521      C2526   1.400       .  A
C2521      H2528   1.082       .  S
C2523      C2524   1.397       .  A
C2523      F2530   1.356       .  S
C2524      H2529   1.083       .  S
C2525      C2526   1.405       .  A
C2526      F2527   1.357       .  S
C2531      C2532   1.404       .  A
C2531      C2536   1.394       .  A
C2531      H2538   1.083       .  S
C2533      C2534   1.399       .  A
C2533      F2540   1.357       .  S
C2534      H2539   1.082       .  S
C2535      C2536   1.411       .  A
C2536      F2537   1.356       .  S
C2541      C2546   1.398       .  A
C2541      H2548   1.083       .  S
C2542      C2543   1.404       .  A
C2543      C2544   1.400       .  A
C2543      F2550   1.357       .  S
C2544      C2545   1.411       .  A
C2544      H2549   1.082       .  S
C2546      F2547   1.356       .  S
C2551      C2552   1.404       .  A
C2551      C2556   1.398       .  A
C2551      H2558   1.082       .  S
C2553      C2554   1.402       .  A
C2553      F2560   1.353       .  S
C2554      H2559   1.080       .  S
C2555      C2556   1.407       .  A
C2556      F2557   1.356       .  S
C2561      C2562   1.405       .  A
C2561      C2566   1.391       .  A
C2561      H2568   1.083       .  S
C2562      C2563   1.403       .  A
C2563      C2564   1.403       .  A
C2563      F2570   1.357       .  S
C2564      C2565   1.413       .  A
C2564      H2569   1.082       .  S
C2565      C2566   1.407       .  A
C2566      F2567   1.356       .  S
C2571      C2572   1.407       .  A
C2571      C2576   1.396       .  A
C2571      H2578   1.083       .  S
C2572      C2573   1.406       .  A
C2573      C2574   1.399       .  A
C2573      F2580   1.357       .  S
C2574      C2575   1.408       .  A
C2574      H2579   1.082       .  S
C2575      C2576   1.407       .  A
C2576      F2577   1.357       .  S
C2581      C2582   1.404       .  A
C2581      C2586   1.393       .  A
C2581      H2588   1.083       .  S
C2582      C2583   1.409       .  A
C2583      C2584   1.401       .  A
C2583      F2590   1.358       .  S
C2584      C2585   1.408       .  A
C2584      H2589   1.082       .  S
C2585      C2586   1.408       .  A
C2586      F2587   1.356       .  S
C2591      C2592   1.405       .  A
C2591      C2596   1.392       .  A
C2591      H2598   1.083       .  S
C2592      C2593   1.400       .  A
C2593      C2594   1.403       .  A
C2593      F2600   1.355       .  S
C2594      C2595   1.407       .  A
C2594      H2599   1.082       .  S
C2595      C2596   1.397       .  A
C2596      F2597   1.357       .  S
O2601      C2611   1.278       .  A
O2602      C2612   1.280       .  A
O2602     Cu2609   2.008   1_556  S
O2603      C2613   1.274       .  A
O2604      C2614   1.275       .  A
O2604     Cu2609   1.980   1_556  S
O2605      C2614   1.280       .  A
O2606      C2613   1.280       .  A
O2606     Cu2610   2.020       .  S
O2607      C2612   1.276       .  A
O2608      C2611   1.278       .  A
O2608     Cu2610   1.999       .  S
C2611      C2772   1.480       .  S
C2612      C2782   1.479       .  S
C2613      C2792   1.466       .  S
C2614      C2762   1.477       .  S
O2615      C2625   1.279       .  A
O2615     Cu2623   2.014   1_545  S
O2616      C2626   1.278       .  A
O2616     Cu2823   2.001       .  S
O2617      C2627   1.277       .  A
O2617     Cu3023   2.004       .  S
O2618      C2628   1.277       .  A
O2620     Cu3024   2.007   1_556  S
O2621     Cu2824   2.007       .  S
O2622     Cu2624   2.001   1_556  S
Cu2623     O2816   2.001   1_556  S
Cu2623     O3017   2.004       .  S
Cu2624     O3020   2.007   1_544  S
Cu2624     O2821   2.007   1_545  S
C2625      C2742   1.481       .  S
C2626      C2732   1.477       .  S
C2627      C2725   1.477       .  S
C2628      C2752   1.477       .  S
C2629      C2631   1.538       .  S
C2629      C2633   1.532       .  S
C2629      C2632   1.543       .  S
C2629      C2699   1.549       .  S
C2630      C2634   1.546       .  S
C2630      C2636   1.549       .  S
C2630      C2635   1.543       .  S
C2630      C2698   1.552       .  S
C2631      C2639   1.378       .  A
C2632      C2643   1.382       .  A
C2633      C2647   1.372       .  A
C2634      C2637   1.379       .  A
C2635      C2641   1.384       .  A
C2636      C2644   1.386       .  A
C2637      H2650   1.079       .  S
N2638      C2639   1.361       .  A
N2638      C2745   1.449       .  S
C2639      H2640   1.081       .  S
C2641      H2651   1.081       .  S
N2642      C2643   1.360       .  A
N2642      N2665   1.420       .  S
C2643      H2649   1.081       .  S
C2644      H2646   1.081       .  S
N2645      C2647   1.352       .  A
N2645      C2755   1.442       .  S
C2647      H2648   1.081       .  S
C2652      C2654   1.536       .  S
C2652      C2656   1.544       .  S
C2652      C2655   1.544       .  S
C2652      C2675   1.552       .  S
C2653      C2657   1.542       .  S
C2653      C2659   1.537       .  S
C2653      C2658   1.541       .  S
C2653      C2676   1.549       .  S
C2654      C2662   1.372       .  A
C2655      C2666   1.384       .  A
C2656      C2670   1.381       .  A
C2657      C2660   1.380       .  A
C2658      C2664   1.382       .  A
C2659      C2667   1.375       .  A
C2660      H2673   1.081       .  S
N2661      C2662   1.356       .  A
N2661      C2735   1.446       .  S
C2662      H2663   1.078       .  S
C2664      H2674   1.081       .  S
N2665      C2666   1.364       .  A
C2666      H2672   1.081       .  S
C2667      H2669   1.080       .  S
N2668      C2670   1.361       .  A
N2668      C2722   1.444       .  S
C2670      H2671   1.081       .  S
C2675      C2677   1.546       .  S
C2675      C2679   1.534       .  S
C2675      C2678   1.543       .  S
C2676      C2680   1.534       .  S
C2676      C2682   1.542       .  S
C2676      C2681   1.540       .  S
C2677      C2685   1.381       .  A
C2677      C2680   1.390       .  A
C2678      C2689   1.382       .  A
C2678      C2681   1.389       .  A
C2679      C2693   1.373       .  A
C2679      C2682   1.388       .  A
C2680      C2683   1.374       .  A
C2681      C2687   1.382       .  A
C2682      C2690   1.378       .  A
C2683      H2696   1.080       .  S
C2683      N2684   1.357       .  A
N2684      C2685   1.361       .  A
N2684      C2775   1.444       .  S
C2685      H2686   1.081       .  S
C2687      H2697   1.081       .  S
C2687      N2688   1.362       .  A
N2688      C2689   1.362       .  A
N2688      N3111   1.418       .  S
C2689      H2695   1.081       .  S
C2690      H2692   1.081       .  S
C2690      N2691   1.359       .  A
N2691      C2693   1.360       .  A
N2691      C2765   1.446       .  S
C2693      H2694   1.078       .  S
C2698      C2700   1.541       .  S
C2698      C2702   1.551       .  S
C2698      C2701   1.542       .  S
C2699      C2703   1.536       .  S
C2699      C2705   1.527       .  S
C2699      C2704   1.540       .  S
C2700      C2708   1.382       .  A
C2700      C2703   1.393       .  A
C2701      C2712   1.382       .  A
C2701      C2704   1.389       .  A
C2702      C2716   1.384       .  A
C2702      C2705   1.390       .  A
C2703      C2706   1.373       .  A
C2704      C2710   1.381       .  A
C2705      C2713   1.369       .  A
C2706      H2719   1.082       .  S
C2706      N2707   1.350       .  A
N2707      C2708   1.357       .  A
N2707      C2795   1.430       .  S
C2708      H2709   1.081       .  S
C2710      H2720   1.081       .  S
C2710      N2711   1.362       .  A
N2711      C2712   1.362       .  A
N2711      N3088   1.418   1_545  S
C2712      H2718   1.081       .  S
C2713      H2715   1.079       .  S
C2713      N2714   1.355       .  A
N2714      C2716   1.362       .  A
N2714      C2785   1.443       .  S
C2716      H2717   1.081       .  S
C2721      C2722   1.409       .  A
C2721      C2726   1.400       .  A
C2721      H2728   1.082       .  S
C2723      C2724   1.397       .  A
C2723      F2730   1.356       .  S
C2724      H2729   1.083       .  S
C2725      C2726   1.405       .  A
C2726      F2727   1.357       .  S
C2731      C2732   1.404       .  A
C2731      C2736   1.394       .  A
C2731      H2738   1.083       .  S
C2733      C2734   1.399       .  A
C2733      F2740   1.357       .  S
C2734      H2739   1.082       .  S
C2735      C2736   1.411       .  A
C2736      F2737   1.356       .  S
C2741      C2746   1.398       .  A
C2741      H2748   1.083       .  S
C2742      C2743   1.404       .  A
C2743      C2744   1.400       .  A
C2743      F2750   1.357       .  S
C2744      C2745   1.411       .  A
C2744      H2749   1.081       .  S
C2746      F2747   1.356       .  S
C2751      C2752   1.404       .  A
C2751      C2756   1.398       .  A
C2751      H2758   1.082       .  S
C2753      C2754   1.402       .  A
C2753      F2760   1.353       .  S
C2754      H2759   1.080       .  S
C2755      C2756   1.407       .  A
C2756      F2757   1.356       .  S
C2761      C2762   1.405       .  A
C2761      C2766   1.391       .  A
C2761      H2768   1.083       .  S
C2762      C2763   1.403       .  A
C2763      C2764   1.403       .  A
C2763      F2770   1.357       .  S
C2764      C2765   1.413       .  A
C2764      H2769   1.082       .  S
C2765      C2766   1.407       .  A
C2766      F2767   1.356       .  S
C2771      C2772   1.407       .  A
C2771      C2776   1.396       .  A
C2771      H2778   1.083       .  S
C2772      C2773   1.406       .  A
C2773      C2774   1.399       .  A
C2773      F2780   1.357       .  S
C2774      C2775   1.408       .  A
C2774      H2779   1.082       .  S
C2775      C2776   1.407       .  A
C2776      F2777   1.357       .  S
C2781      C2782   1.404       .  A
C2781      C2786   1.393       .  A
C2781      H2788   1.083       .  S
C2782      C2783   1.409       .  A
C2783      C2784   1.401       .  A
C2783      F2790   1.358       .  S
C2784      C2785   1.408       .  A
C2784      H2789   1.082       .  S
C2785      C2786   1.408       .  A
C2786      F2787   1.356       .  S
C2791      C2792   1.405       .  A
C2791      C2796   1.392       .  A
C2791      H2798   1.083       .  S
C2792      C2793   1.400       .  A
C2793      C2794   1.403       .  A
C2793      F2800   1.355       .  S
C2794      C2795   1.407       .  A
C2794      H2799   1.082       .  S
C2795      C2796   1.397       .  A
C2796      F2797   1.357       .  S
O2801      C2811   1.278       .  A
O2801     Cu3009   2.006       .  S
O2802      C2812   1.280       .  A
O2802     Cu2809   2.008       .  S
O2803      C2813   1.274       .  A
O2803     Cu3009   1.984       .  S
O2804      C2814   1.275       .  A
O2804     Cu2809   1.980       .  S
O2805      C2814   1.280       .  A
O2805     Cu3010   2.026       .  S
O2806      C2813   1.280       .  A
O2806     Cu2810   2.020   1_554  S
O2807      C2812   1.276       .  A
O2807     Cu3010   1.995       .  S
O2808      C2811   1.278       .  A
O2808     Cu2810   1.999   1_554  S
Cu2809     O3001   2.006       .  S
Cu2809     O3003   1.984       .  S
Cu2809    Cu3010   2.370       .  S
Cu2810     O3005   2.026       .  S
Cu2810     O3007   1.995       .  S
Cu2810    Cu3009   2.370   1_556  S
C2811      C2972   1.480       .  S
C2812      C2982   1.479       .  S
C2813      C2992   1.466       .  S
C2814      C2962   1.477       .  S
O2815      C2825   1.279       .  A
O2815     Cu2823   2.014       .  S
O2816      C2826   1.278       .  A
O2817      C2827   1.277       .  A
O2818      C2828   1.277       .  A
O2818     Cu3023   2.006   1_554  S
O2819     Cu3024   2.015       .  S
O2822     Cu2824   2.001       .  S
Cu2823     O3018   2.006       .  S
Cu2824     O3019   2.015       .  S
C2825      C2942   1.481       .  S
C2826      C2932   1.477       .  S
C2827      C2925   1.477       .  S
C2828      C2952   1.477       .  S
C2829      C2831   1.538       .  S
C2829      C2833   1.532       .  S
C2829      C2832   1.543       .  S
C2829      C2899   1.549       .  S
C2830      C2834   1.546       .  S
C2830      C2836   1.549       .  S
C2830      C2835   1.543       .  S
C2830      C2898   1.552       .  S
C2831      C2839   1.378       .  A
C2832      C2843   1.382       .  A
C2833      C2847   1.372       .  A
C2834      C2837   1.379       .  A
C2835      C2841   1.384       .  A
C2836      C2844   1.386       .  A
C2837      H2850   1.079       .  S
N2838      C2839   1.361       .  A
N2838      C2945   1.449       .  S
C2839      H2840   1.081       .  S
C2841      H2851   1.081       .  S
N2842      C2843   1.360       .  A
N2842      N2865   1.420       .  S
C2843      H2849   1.081       .  S
C2844      H2846   1.081       .  S
N2845      C2847   1.352       .  A
N2845      C2955   1.442       .  S
C2847      H2848   1.081       .  S
C2852      C2854   1.536       .  S
C2852      C2856   1.544       .  S
C2852      C2855   1.544       .  S
C2852      C2875   1.552       .  S
C2853      C2857   1.542       .  S
C2853      C2859   1.537       .  S
C2853      C2858   1.541       .  S
C2853      C2876   1.549       .  S
C2854      C2862   1.372       .  A
C2855      C2866   1.384       .  A
C2856      C2870   1.381       .  A
C2857      C2860   1.380       .  A
C2858      C2864   1.382       .  A
C2859      C2867   1.375       .  A
C2860      H2873   1.081       .  S
N2861      C2862   1.356       .  A
N2861      C2935   1.446       .  S
C2862      H2863   1.078       .  S
C2864      H2874   1.081       .  S
N2865      C2866   1.364       .  A
C2866      H2872   1.081       .  S
C2867      H2869   1.080       .  S
N2868      C2870   1.361       .  A
N2868      C2922   1.444       .  S
C2870      H2871   1.081       .  S
C2875      C2877   1.546       .  S
C2875      C2879   1.534       .  S
C2875      C2878   1.543       .  S
C2876      C2880   1.534       .  S
C2876      C2882   1.542       .  S
C2876      C2881   1.540       .  S
C2877      C2885   1.381       .  A
C2877      C2880   1.390       .  A
C2878      C2889   1.382       .  A
C2878      C2881   1.389       .  A
C2879      C2893   1.373       .  A
C2879      C2882   1.388       .  A
C2880      C2883   1.374       .  A
C2881      C2887   1.382       .  A
C2882      C2890   1.378       .  A
C2883      H2896   1.080       .  S
C2883      N2884   1.357       .  A
N2884      C2885   1.361       .  A
N2884      C2975   1.444       .  S
C2885      H2886   1.081       .  S
C2887      H2897   1.081       .  S
C2887      N2888   1.362       .  A
N2888      C2889   1.362       .  A
C2889      H2895   1.081       .  S
C2890      H2892   1.081       .  S
C2890      N2891   1.359       .  A
N2891      C2893   1.360       .  A
N2891      C2965   1.446       .  S
C2893      H2894   1.078       .  S
C2898      C2900   1.541       .  S
C2898      C2902   1.551       .  S
C2898      C2901   1.542       .  S
C2899      C2903   1.536       .  S
C2899      C2905   1.527       .  S
C2899      C2904   1.540       .  S
C2900      C2908   1.382       .  A
C2900      C2903   1.393       .  A
C2901      C2912   1.382       .  A
C2901      C2904   1.389       .  A
C2902      C2916   1.384       .  A
C2902      C2905   1.390       .  A
C2903      C2906   1.373       .  A
C2904      C2910   1.381       .  A
C2905      C2913   1.369       .  A
C2906      H2919   1.082       .  S
C2906      N2907   1.350       .  A
N2907      C2908   1.357       .  A
N2907      C2995   1.430       .  S
C2908      H2909   1.081       .  S
C2910      H2920   1.081       .  S
C2910      N2911   1.362       .  A
N2911      C2912   1.362       .  A
C2912      H2918   1.081       .  S
C2913      H2915   1.079       .  S
C2913      N2914   1.355       .  A
N2914      C2916   1.362       .  A
N2914      C2985   1.443       .  S
C2916      H2917   1.081       .  S
C2921      C2922   1.409       .  A
C2921      C2926   1.400       .  A
C2921      H2928   1.082       .  S
C2923      C2924   1.397       .  A
C2923      F2930   1.356       .  S
C2924      H2929   1.083       .  S
C2925      C2926   1.405       .  A
C2926      F2927   1.357       .  S
C2931      C2932   1.404       .  A
C2931      C2936   1.394       .  A
C2931      H2938   1.083       .  S
C2933      C2934   1.399       .  A
C2933      F2940   1.357       .  S
C2934      H2939   1.082       .  S
C2935      C2936   1.411       .  A
C2936      F2937   1.356       .  S
C2941      C2946   1.398       .  A
C2941      H2948   1.083       .  S
C2942      C2943   1.404       .  A
C2943      C2944   1.400       .  A
C2943      F2950   1.357       .  S
C2944      C2945   1.411       .  A
C2944      H2949   1.082       .  S
C2946      F2947   1.356       .  S
C2951      C2952   1.404       .  A
C2951      C2956   1.398       .  A
C2951      H2958   1.082       .  S
C2953      C2954   1.402       .  A
C2953      F2960   1.353       .  S
C2954      H2959   1.080       .  S
C2955      C2956   1.407       .  A
C2956      F2957   1.356       .  S
C2961      C2962   1.405       .  A
C2961      C2966   1.391       .  A
C2961      H2968   1.083       .  S
C2962      C2963   1.403       .  A
C2963      C2964   1.403       .  A
C2963      F2970   1.357       .  S
C2964      C2965   1.413       .  A
C2964      H2969   1.082       .  S
C2965      C2966   1.407       .  A
C2966      F2967   1.356       .  S
C2971      C2972   1.407       .  A
C2971      C2976   1.396       .  A
C2971      H2978   1.083       .  S
C2972      C2973   1.406       .  A
C2973      C2974   1.399       .  A
C2973      F2980   1.357       .  S
C2974      C2975   1.408       .  A
C2974      H2979   1.082       .  S
C2975      C2976   1.407       .  A
C2976      F2977   1.357       .  S
C2981      C2982   1.404       .  A
C2981      C2986   1.393       .  A
C2981      H2988   1.083       .  S
C2982      C2983   1.409       .  A
C2983      C2984   1.401       .  A
C2983      F2990   1.358       .  S
C2984      C2985   1.408       .  A
C2984      H2989   1.082       .  S
C2985      C2986   1.408       .  A
C2986      F2987   1.356       .  S
C2991      C2992   1.405       .  A
C2991      C2996   1.392       .  A
C2991      H2998   1.083       .  S
C2992      C2993   1.400       .  A
C2993      C2994   1.403       .  A
C2993      F3000   1.355       .  S
C2994      C2995   1.407       .  A
C2994      H2999   1.082       .  S
C2995      C2996   1.397       .  A
C2996      F2997   1.357       .  S
O3001      C3011   1.278       .  A
O3002      C3012   1.280       .  A
O3002     Cu3009   2.008   1_556  S
O3003      C3013   1.274       .  A
O3004      C3014   1.275       .  A
O3004     Cu3009   1.980   1_556  S
O3005      C3014   1.280       .  A
O3006      C3013   1.280       .  A
O3006     Cu3010   2.020       .  S
O3007      C3012   1.276       .  A
O3008      C3011   1.278       .  A
O3008     Cu3010   1.999       .  S
C3011      C3172   1.480       .  S
C3012      C3182   1.479       .  S
C3013      C3192   1.466       .  S
C3014      C3162   1.477       .  S
O3015      C3025   1.279       .  A
O3015     Cu3023   2.014       .  S
O3016      C3026   1.278       .  A
O3017      C3027   1.277       .  A
O3018      C3028   1.277       .  A
O3022     Cu3024   2.001   1_556  S
C3025      C3142   1.481       .  S
C3026      C3132   1.477       .  S
C3027      C3125   1.477       .  S
C3028      C3152   1.477       .  S
C3029      C3031   1.538       .  S
C3029      C3033   1.532       .  S
C3029      C3032   1.543       .  S
C3029      C3099   1.549       .  S
C3030      C3034   1.546       .  S
C3030      C3036   1.549       .  S
C3030      C3035   1.543       .  S
C3030      C3098   1.552       .  S
C3031      C3039   1.378       .  A
C3032      C3043   1.382       .  A
C3033      C3047   1.372       .  A
C3034      C3037   1.379       .  A
C3035      C3041   1.384       .  A
C3036      C3044   1.386       .  A
C3037      H3050   1.079       .  S
N3038      C3039   1.361       .  A
N3038      C3145   1.449       .  S
C3039      H3040   1.081       .  S
C3041      H3051   1.081       .  S
N3042      C3043   1.360       .  A
N3042      N3065   1.420       .  S
C3043      H3049   1.081       .  S
C3044      H3046   1.081       .  S
N3045      C3047   1.352       .  A
N3045      C3155   1.442       .  S
C3047      H3048   1.081       .  S
C3052      C3054   1.536       .  S
C3052      C3056   1.544       .  S
C3052      C3055   1.544       .  S
C3052      C3075   1.552       .  S
C3053      C3057   1.542       .  S
C3053      C3059   1.537       .  S
C3053      C3058   1.541       .  S
C3053      C3076   1.549       .  S
C3054      C3062   1.372       .  A
C3055      C3066   1.384       .  A
C3056      C3070   1.381       .  A
C3057      C3060   1.380       .  A
C3058      C3064   1.382       .  A
C3059      C3067   1.375       .  A
C3060      H3073   1.081       .  S
N3061      C3062   1.356       .  A
N3061      C3135   1.446       .  S
C3062      H3063   1.078       .  S
C3064      H3074   1.081       .  S
N3065      C3066   1.364       .  A
C3066      H3072   1.081       .  S
C3067      H3069   1.080       .  S
N3068      C3070   1.361       .  A
N3068      C3122   1.444       .  S
C3070      H3071   1.081       .  S
C3075      C3077   1.546       .  S
C3075      C3079   1.534       .  S
C3075      C3078   1.543       .  S
C3076      C3080   1.534       .  S
C3076      C3082   1.542       .  S
C3076      C3081   1.540       .  S
C3077      C3085   1.381       .  A
C3077      C3080   1.390       .  A
C3078      C3089   1.382       .  A
C3078      C3081   1.389       .  A
C3079      C3093   1.373       .  A
C3079      C3082   1.388       .  A
C3080      C3083   1.374       .  A
C3081      C3087   1.382       .  A
C3082      C3090   1.378       .  A
C3083      H3096   1.080       .  S
C3083      N3084   1.357       .  A
N3084      C3085   1.361       .  A
N3084      C3175   1.444       .  S
C3085      H3086   1.081       .  S
C3087      H3097   1.081       .  S
C3087      N3088   1.362       .  A
N3088      C3089   1.362       .  A
C3089      H3095   1.081       .  S
C3090      H3092   1.081       .  S
C3090      N3091   1.359       .  A
N3091      C3093   1.360       .  A
N3091      C3165   1.446       .  S
C3093      H3094   1.078       .  S
C3098      C3100   1.541       .  S
C3098      C3102   1.551       .  S
C3098      C3101   1.542       .  S
C3099      C3103   1.536       .  S
C3099      C3105   1.527       .  S
C3099      C3104   1.540       .  S
C3100      C3108   1.382       .  A
C3100      C3103   1.393       .  A
C3101      C3112   1.382       .  A
C3101      C3104   1.389       .  A
C3102      C3116   1.384       .  A
C3102      C3105   1.390       .  A
C3103      C3106   1.373       .  A
C3104      C3110   1.381       .  A
C3105      C3113   1.369       .  A
C3106      H3119   1.082       .  S
C3106      N3107   1.350       .  A
N3107      C3108   1.357       .  A
N3107      C3195   1.430       .  S
C3108      H3109   1.081       .  S
C3110      H3120   1.081       .  S
C3110      N3111   1.362       .  A
N3111      C3112   1.362       .  A
C3112      H3118   1.081       .  S
C3113      H3115   1.079       .  S
C3113      N3114   1.355       .  A
N3114      C3116   1.362       .  A
N3114      C3185   1.443       .  S
C3116      H3117   1.081       .  S
C3121      C3122   1.409       .  A
C3121      C3126   1.400       .  A
C3121      H3128   1.082       .  S
C3123      C3124   1.397       .  A
C3123      F3130   1.356       .  S
C3124      H3129   1.083       .  S
C3125      C3126   1.405       .  A
C3126      F3127   1.357       .  S
C3131      C3132   1.404       .  A
C3131      C3136   1.394       .  A
C3131      H3138   1.083       .  S
C3133      C3134   1.399       .  A
C3133      F3140   1.357       .  S
C3134      H3139   1.082       .  S
C3135      C3136   1.411       .  A
C3136      F3137   1.356       .  S
C3141      C3146   1.398       .  A
C3141      H3148   1.083       .  S
C3142      C3143   1.404       .  A
C3143      C3144   1.400       .  A
C3143      F3150   1.357       .  S
C3144      C3145   1.411       .  A
C3144      H3149   1.082       .  S
C3146      F3147   1.356       .  S
C3151      C3152   1.404       .  A
C3151      C3156   1.398       .  A
C3151      H3158   1.082       .  S
C3153      C3154   1.402       .  A
C3153      F3160   1.353       .  S
C3154      H3159   1.080       .  S
C3155      C3156   1.407       .  A
C3156      F3157   1.356       .  S
C3161      C3162   1.405       .  A
C3161      C3166   1.391       .  A
C3161      H3168   1.083       .  S
C3162      C3163   1.403       .  A
C3163      C3164   1.403       .  A
C3163      F3170   1.357       .  S
C3164      C3165   1.413       .  A
C3164      H3169   1.082       .  S
C3165      C3166   1.407       .  A
C3166      F3167   1.356       .  S
C3171      C3172   1.407       .  A
C3171      C3176   1.396       .  A
C3171      H3178   1.083       .  S
C3172      C3173   1.406       .  A
C3173      C3174   1.399       .  A
C3173      F3180   1.357       .  S
C3174      C3175   1.408       .  A
C3174      H3179   1.082       .  S
C3175      C3176   1.407       .  A
C3176      F3177   1.357       .  S
C3181      C3182   1.404       .  A
C3181      C3186   1.393       .  A
C3181      H3188   1.083       .  S
C3182      C3183   1.409       .  A
C3183      C3184   1.401       .  A
C3183      F3190   1.358       .  S
C3184      C3185   1.408       .  A
C3184      H3189   1.082       .  S
C3185      C3186   1.408       .  A
C3186      F3187   1.356       .  S
C3191      C3192   1.405       .  A
C3191      C3196   1.392       .  A
C3191      H3198   1.083       .  S
C3192      C3193   1.400       .  A
C3193      C3194   1.403       .  A
C3193      F3200   1.355       .  S
C3194      C3195   1.407       .  A
C3194      H3199   1.082       .  S
C3195      C3196   1.397       .  A
C3196      F3197   1.357       .  S
