geometry optimzed in LAMMPS
_audit_creation_date              2020-11-30 
_audit_creation_method            'lammps2cif' 
_symmetry_space_group_name_H-M    'P1' 
_symmetry_Int_Tables_number       1 
_symmetry_cell_setting            triclinic 
loop_ 
_symmetry_equiv_pos_as_xyz 
  x,y,z 
_cell_length_a                    43.04274929 
_cell_length_b                    45.07775066135776 
_cell_length_c                    42.772430250685055 
_cell_angle_alpha                 91.59780732058378 
_cell_angle_beta                  98.57183247702868 
_cell_angle_gamma                 94.44160601616824 
loop_ 
_atom_site_label 
_atom_site_type_symbol 
_atom_site_fract_x 
_atom_site_fract_y 
_atom_site_fract_z 
_atom_site_charge 
C1          C  0.43759095  0.14246859  0.55589728     0.81100
N2          N  0.44991765  0.16671235  0.05522070    -0.77200
C3          C  0.44413045  0.19609255  0.05674222     0.83500
N4          N  0.41359692  0.20340514  0.05466386    -0.77200
C5          C  0.40022081  0.17874390  0.55007729     0.83600
N6          N  0.40719848  0.14979722  0.55173950    -0.78900
C7          C  0.39330123  0.17207198  0.31346426     0.81100
N8          N  0.40060986  0.14314140  0.31260821    -0.77200
C9          C  0.43152524  0.13700463  0.31696560     0.83500
N10         N  0.45450091  0.15980360  0.32217013    -0.77200
C11         C  0.44734415  0.18841311  0.32340628     0.83600
N12         N  0.41678584  0.19425172  0.31905393    -0.78900
C13         C  0.31839391  0.40247711  0.06619211     0.81100
N14         N  0.34898869  0.41389547  0.06866157    -0.77200
C15         C  0.35638162  0.44395156  0.07015462     0.83500
N16         N  0.33296501  0.46263085  0.07013452    -0.77200
C17         C  0.30231284  0.45166763  0.06848543     0.83600
N18         N  0.29532615  0.42157209  0.06640531    -0.78900
C19         C  0.29232433  0.39255370  0.27422833     0.81100
N20         N  0.27282857  0.41496502  0.27190471    -0.77200
C21         C  0.28485873  0.44346699  0.26922853     0.83500
N22         N  0.31622657  0.44931505  0.26987690    -0.77200
C23         C  0.33564639  0.42707655  0.27213278     0.83600
N24         N  0.32361506  0.39862414  0.27373410    -0.78900
O25         O  0.01138085  0.47302027  0.48346862    -0.80000
O26         O  0.01608999  0.47161118  0.13207859    -0.64700
O27         O  0.99628844  0.47064211  0.04192454    -1.11300
C28         C  0.46543679  0.06970164  0.04925014     1.06900
O29         O  0.48912147  0.50577787  0.14988407    -0.77900
O30         O  0.44446462  0.49841430  0.09740795    -0.65500
Ni31       Ni  0.02763787  0.45655868  0.01890530     1.34900
C32         C  0.43363530  0.49366826  0.06827118     0.85600
O33         O  0.01142470  0.42880554  0.08671261    -0.78500
O34         O  0.04262355  0.42831665  0.04991175    -0.88700
C35         C  0.00179004  0.48449246  0.15180224     0.85200
O36         O  0.05856137  0.48724296  0.03736545    -0.66900
O37         O  0.45329277  0.05498032  0.07000859    -0.86200
C38         C  0.06859911  0.49073480  0.06682379     0.86000
C39         C  0.02933313  0.41537433  0.07108273     1.07600
H40         H  0.02783409  0.02749177  0.08859453     0.39400
O41         O  0.00869950  0.01465980  0.08255911    -1.08900
O42         O  0.44886542  0.50295156  0.04642356    -0.65500
Ni43       Ni  0.49254147  0.01660915  0.03249841     1.26300
O44         O  0.05235897  0.48087055  0.08770556    -0.65800
O45         O  0.48462313  0.05821982  0.03346905    -0.78100
C46         C  0.99018614  0.49079292  0.47647604     0.85400
O47         O  0.48695387  0.00870251  0.49165908    -0.65200
Ni48       Ni  0.47225421  0.02821841  0.10102246     1.27400
Ni49       Ni  0.00691580  0.47090073  0.08688061     1.26100
H50         H  0.48296610  0.46027504  0.04400423     0.39900
O51         O  0.43356513  0.45474121  0.27445584    -0.80000
O52         O  0.06764001  0.49608297  0.31136370    -0.64700
O53         O  0.48900551  0.46495140  0.31834907    -1.11300
C54         C  0.48444815  0.07164036  0.32150318     1.06900
O55         O  0.07911470  0.02410794  0.35730430    -0.77900
O56         O  0.02682121  0.03379794  0.38017731    -0.65500
Ni57       Ni  0.47156122  0.43546565  0.28609757     1.34900
C58         C  0.00250314  0.01694698  0.38242391     0.85600
O59         O  0.04335447  0.43920523  0.31099540    -0.78500
O60         O  0.00015759  0.40887475  0.29264902    -0.88700
C61         C  0.09542189  0.01310825  0.33825517     0.85200
O62         O  0.48796820  0.45316954  0.25147633    -0.66900
O63         O  0.01235361  0.07431359  0.33531171    -0.86200
C64         C  0.00314096  0.46581685  0.24404595     0.86000
C65         C  0.02968806  0.41354651  0.30237916     1.07600
H66         H  0.02573205  0.02976121  0.29297981     0.39400
O67         O  0.02440927  0.02058317  0.31294332    -1.08900
O68         O  0.47237743  0.50243133  0.36330321    -0.65500
Ni69       Ni  0.47512057  0.00685983  0.30976199     1.26300
O70         O  0.02169925  0.47896229  0.26698893    -0.65800
O71         O  0.46621547  0.04795357  0.31415186    -0.78100
C72         C  0.41725104  0.46680007  0.29287787     0.85400
O73         O  0.42961359  0.48504831  0.31507457    -0.65200
Ni74       Ni  0.04498284  0.04827683  0.34521657     1.27400
Ni75       Ni  0.02666242  0.47753290  0.31252845     1.26100
H76         H  0.48738764  0.45607308  0.33841189     0.39900
C77         C  0.06540485  0.33922220  0.07199108     0.81100
N78         N  0.04154716  0.31727057  0.07027841    -0.77200
C79         C  0.04786588  0.28804609  0.07189723     0.83500
N80         N  0.07859399  0.28110840  0.07552879    -0.77200
C81         C  0.10257965  0.30304476  0.07738844     0.83600
N82         N  0.09564407  0.33185043  0.07533448    -0.78900
C83         C  0.04928056  0.33246989  0.29375921     0.81100
N84         N  0.08028989  0.32980661  0.30491363    -0.77200
C85         C  0.09067348  0.30209067  0.30857767     0.83500
N86         N  0.07001835  0.27762786  0.30122117    -0.77200
C87         C  0.03935558  0.28026388  0.29000632     0.83600
N88         N  0.02930452  0.30776449  0.28627086    -0.78900
C89         C  0.19718710  0.07828606  0.05548912     0.81100
N90         N  0.21829290  0.05752229  0.05647591    -0.77200
C91         C  0.20950331  0.02816312  0.05783593     0.83500
N92         N  0.17849807  0.01940733  0.05803653    -0.77200
C93         C  0.15665655  0.03995481  0.05681855     0.83600
N94         N  0.16605395  0.06950703  0.05506118    -0.78900
C95         C  0.21615264  0.08611632  0.36364198     0.81100
N96         N  0.23523955  0.06612414  0.35417282    -0.77200
C97         C  0.22570615  0.03659515  0.35243410     0.83500
N98         N  0.19665839  0.02756901  0.35859383    -0.77200
C99         C  0.17737826  0.04742202  0.36734893     0.83600
N100        N  0.18727615  0.07669724  0.37026773    -0.78900
O101        O  0.24860688  0.31935034  0.08420597    -0.80000
O102        O  0.20465040  0.18614160  0.07379000    -0.64700
O103        O  0.25776312  0.25857537  0.09081941    -1.11300
C104        C  0.26288189  0.24543198  0.48041897     1.06900
O105        O  0.23738949  0.16668443  0.04524415    -0.77900
O106        O  0.29094252  0.19936277  0.03605976    -0.65500
Ni107      Ni  0.24498246  0.28997969  0.11570630     1.34900
C108        C  0.31039304  0.22124732  0.04675246     0.85600
O109        O  0.22824590  0.21711955  0.12746507    -0.78500
O110        O  0.24098766  0.26329710  0.14946937    -0.88700
C111        C  0.21385410  0.16386839  0.06016720     0.85200
O112        O  0.20033879  0.28591879  0.10193018    -0.66900
O113        O  0.25611700  0.21753918  0.48250485    -0.86200
C114        C  0.18167919  0.26547060  0.08677847     0.86000
C115        C  0.23399682  0.23542975  0.15127017     1.07600
H116        H  0.21456237  0.23373266  0.02891208     0.39400
O117        O  0.23467436  0.22903183  0.04010150    -1.08900
O118        O  0.30172420  0.24744126  0.05139825    -0.65500
Ni119      Ni  0.26120102  0.26560061  0.04744456     1.26300
O120        O  0.19099569  0.24100731  0.07777970    -0.65800
O121        O  0.27183037  0.26351639  0.50426929    -0.78100
C122        C  0.27187509  0.32515927  0.06961408     0.85400
O123        O  0.28481509  0.30416178  0.05714357    -0.65200
Ni124      Ni  0.24783755  0.19705063  0.01644133     1.27400
Ni125      Ni  0.23055442  0.22262252  0.08336307     1.26100
H126        H  0.27794908  0.25346454  0.10144960     0.39900
O127        O  0.22922316  0.17884782  0.35533197    -0.80000
O128        O  0.24153048  0.30961776  0.32201124    -0.64700
O129        O  0.21805032  0.22590936  0.31626101    -1.11300
C130        C  0.32407970  0.22102233  0.29872203     1.06900
O131        O  0.25877514  0.30242329  0.27684514    -0.77900
O132        O  0.27064273  0.25302229  0.24813430    -0.65100
Ni133      Ni  0.19748057  0.20641806  0.34690260     1.34900
C134        C  0.25253583  0.22941735  0.24334040     0.85600
O135        O  0.18680993  0.27688199  0.32631078    -0.78500
O136        O  0.16477091  0.23295128  0.34011883    -0.88700
C137        C  0.25261361  0.32003943  0.29826887     0.85200
O138        O  0.21727552  0.22877871  0.38371890    -0.66900
O139        O  0.32329471  0.24826778  0.29129009    -0.86200
C140        C  0.23565722  0.25225340  0.38848502     0.86000
C141        C  0.16337001  0.26011759  0.33272205     1.07600
H142        H  0.28374804  0.25969720  0.33524018     0.39400
O143        O  0.26971933  0.25620303  0.31541882    -1.08900
O144        O  0.24553736  0.21289785  0.26530632    -0.65500
Ni145      Ni  0.25879276  0.21456079  0.31075144     1.26300
O146        O  0.24233836  0.26893353  0.36647944    -0.65800
O147        O  0.30046287  0.20497285  0.30557321    -0.78100
C148        C  0.23792245  0.16214984  0.33443857     0.85400
O149        O  0.24646008  0.17300159  0.30977064    -0.65200
Ni150      Ni  0.29068728  0.27520180  0.28480755     1.27400
Ni151      Ni  0.22882777  0.26768994  0.32100309     1.26100
H152        H  0.20403253  0.22237285  0.29643533     0.39900
C153        C  0.25850592  0.25655576  0.44888952    -0.12400
C154        C  0.24994248  0.25890894  0.42085813    -0.14000
C155        C  0.23413814  0.22449443  0.18255581    -0.12400
C156        C  0.23965368  0.22216705  0.21085296    -0.14000
C157        C  0.23799831  0.13003377  0.33934300    -0.15600
C158        C  0.22406046  0.11810322  0.36267224    -0.30700
H159        H  0.24653155  0.11585114  0.32205571     0.13500
H160        H  0.21357640  0.13226479  0.37850331     0.14000
C161        C  0.19790770  0.13377378  0.06304951    -0.15600
C162        C  0.20919684  0.10939232  0.05165055    -0.30700
H163        H  0.17756765  0.13155299  0.07535517     0.13500
H164        H  0.23051634  0.11203091  0.04086627     0.14000
C165        C  0.13187364  0.27111442  0.33014693    -0.15600
C166        C  0.12423605  0.29773495  0.31930957    -0.30700
H167        H  0.11317330  0.25480984  0.33450303     0.13500
H168        H  0.14233229  0.31494668  0.31578823     0.14000
C169        C  0.13642030  0.29691634  0.08291550    -0.15600
C170        C  0.14735852  0.26993196  0.07968693    -0.30700
H171        H  0.15329743  0.31605143  0.08962604     0.13500
H172        H  0.13091781  0.25079923  0.07160871     0.14000
C173        C  0.12971127  0.01728199  0.34527982    -0.15600
C174        C  0.14404489  0.03832292  0.36660707    -0.30700
H175        H  0.14321027  0.00519439  0.33035525     0.13500
H176        H  0.13035508  0.05206348  0.37971712     0.14000
C177        C  0.04865583  0.38741860  0.30369128    -0.15600
C178        C  0.03532252  0.36113691  0.29069262    -0.30700
H179        H  0.07279015  0.38945012  0.31584202     0.13500
H180        H  0.01115022  0.35974595  0.27857882     0.14000
C181        C  0.11057120  0.00810513  0.06978350    -0.15600
C182        C  0.12251391  0.02975909  0.05266001    -0.30700
H183        H  0.11426777  0.49834407  0.09905874     0.13500
H184        H  0.10697145  0.03954720  0.03407832     0.14000
C185        C  0.03509731  0.38382387  0.07766515    -0.15600
C186        C  0.05930833  0.37091571  0.06772905    -0.30700
H187        H  0.01914635  0.37098860  0.09057396     0.13500
H188        H  0.07636495  0.38448596  0.05679228     0.14000
C189        C  0.98302116  0.49723044  0.44350982    -0.12400
C190        C  0.98301467  0.50140052  0.41569735    -0.14000
C191        C  0.00759664  0.47230125  0.21221421    -0.12400
C192        C  0.00738112  0.47730079  0.18459596    -0.14000
C193        C  0.21256765  0.48592733  0.25806606    -0.12500
C194        C  0.24439292  0.01452979  0.33988989     0.09700
C195        C  0.26880281  0.02352813  0.32312403    -0.12500
C196        C  0.27747279  0.49751934  0.27544643    -0.12500
C197        C  0.26455908  0.46826994  0.26679664     0.09700
C198        C  0.23211642  0.46292105  0.25684022    -0.12500
H199        H  0.18738404  0.48076461  0.25165009     0.13700
H200        H  0.27562950  0.04689832  0.32076431     0.13700
H201        H  0.30241769  0.00997888  0.29500843     0.13700
H202        H  0.22172577  0.44077612  0.24915468     0.13700
C203        C  0.28036499  0.36149778  0.27626630    -0.15600
C204        C  0.25933149  0.35232451  0.29504512    -0.30700
H205        H  0.29222111  0.34515595  0.26427104     0.13500
H206        H  0.24936728  0.36820920  0.30948894     0.14000
C207        C  0.36970358  0.43405438  0.27470293    -0.15600
C208        C  0.38308356  0.46027733  0.28771127    -0.30700
H209        H  0.38413954  0.41686782  0.26807168     0.13500
H210        H  0.36883360  0.47634954  0.29693354     0.14000
C211        C  0.28382440  0.50334228  0.07401534    -0.12500
C212        C  0.27684901  0.47225911  0.07033117     0.09700
C213        C  0.24521029  0.46099175  0.06890715    -0.12500
C214        C  0.22127249  0.48014099  0.07067338    -0.12500
C215        C  0.23373179  0.00639650  0.05677850     0.09700
C216        C  0.26559563  0.01678011  0.05762267    -0.12500
H217        H  0.30786515  0.51294579  0.07542772     0.13700
H218        H  0.23879315  0.43725574  0.06625083     0.13700
H219        H  0.19724205  0.47048179  0.06911209     0.13700
H220        H  0.27290851  0.04036743  0.05995449     0.13700
C221        C  0.31058183  0.36938723  0.06479291    -0.15600
C222        C  0.28112060  0.35732819  0.06608734    -0.30700
H223        H  0.32954663  0.35488184  0.06448938     0.13500
H224        H  0.26279516  0.37225947  0.06803249     0.14000
C225        C  0.38994876  0.45619625  0.07588541    -0.15600
C226        C  0.40127795  0.47867016  0.05944526    -0.30700
H227        H  0.40571330  0.44661121  0.09442343     0.13500
H228        H  0.38627580  0.48653296  0.03917206     0.14000
C229        C  0.46443732  0.24274059  0.32876586    -0.12500
C230        C  0.47233198  0.21314002  0.32690170     0.09700
C231        C  0.00190391  0.20204085  0.29480854    -0.12500
C232        C  0.02491836  0.22576251  0.29507410    -0.12500
C233        C  0.01634941  0.25383942  0.28503262     0.09700
C234        C  0.48732804  0.26628529  0.32843152    -0.12500
H235        H  0.44038732  0.24779818  0.32966670     0.13700
H236        H  0.00896487  0.18101244  0.30392646     0.13700
H237        H  0.04914237  0.22243406  0.30442968     0.13700
H238        H  0.48036420  0.28883799  0.32926086     0.13700
C239        C  0.44081251  0.10598468  0.31579381    -0.15600
C240        C  0.47165011  0.10101385  0.32063680    -0.30700
H241        H  0.42274831  0.08752511  0.31146990     0.13500
H242        H  0.48930341  0.11981278  0.32525778     0.14000
C243        C  0.36037160  0.18031992  0.30796573    -0.15600
C244        C  0.35474709  0.20846487  0.30029302    -0.30700
H245        H  0.34124051  0.16401881  0.31104547     0.13500
H246        H  0.37416850  0.22399208  0.29609422     0.14000
C247        C  0.46593226  0.25010066  0.06591676    -0.12500
C248        C  0.47109680  0.21985968  0.06169050     0.09700
C249        C  0.00269826  0.21128783  0.06868679    -0.12500
C250        C  0.02744974  0.23388879  0.07214323    -0.12500
C251        C  0.02137400  0.26398113  0.06904004     0.09700
C252        C  0.49125460  0.27226550  0.07082188    -0.12500
H253        H  0.44223548  0.25674149  0.06546780     0.13700
H254        H  0.00850667  0.18845565  0.07127542     0.13700
H255        H  0.05143309  0.22768251  0.07716616     0.13700
H256        H  0.48616985  0.29522420  0.07386355     0.13700
C257        C  0.43216756  0.11261775  0.05354657    -0.15600
C258        C  0.45742277  0.10112661  0.04372468    -0.30700
H259        H  0.42947965  0.09762438  0.57411391     0.13500
H260        H  0.47328196  0.11543203  0.03210216     0.14000
C261        C  0.35538279  0.18883910  0.04783417    -0.15600
C262        C  0.34488288  0.21599230  0.05301167    -0.30700
H263        H  0.33806538  0.17018686  0.04045534     0.13500
H264        H  0.36183025  0.23479274  0.06089366     0.14000
C265        C  0.42586017  0.14481958  0.05201278     0.81100
N266        N  0.46138031  0.16461491  0.55887031    -0.77200
C267        C  0.45501091  0.19386385  0.55774686     0.83500
N268        N  0.42426213  0.20071686  0.55328924    -0.77200
C269        C  0.38920780  0.18175243  0.05127860     0.83600
N270        N  0.39569165  0.15260285  0.05026666    -0.78900
C271        C  0.40357018  0.17674330  0.77204314     0.81100
N272        N  0.40922368  0.14880837  0.78190160    -0.77200
C273        C  0.43901667  0.13975521  0.78387413     0.83500
N274        N  0.46272005  0.15903412  0.77676911    -0.77200
C275        C  0.45704050  0.18667886  0.76698014     0.83600
N276        N  0.42738700  0.19511187  0.76448967    -0.78900
C277        C  0.30665759  0.40333753  0.57359677     0.81100
N278        N  0.33790223  0.41191900  0.57406244    -0.77200
C279        C  0.34735275  0.44109151  0.56965115     0.83500
N280        N  0.32531714  0.46146028  0.56535659    -0.77200
C281        C  0.29421344  0.45292015  0.56530552     0.83600
N282        N  0.28547773  0.42401795  0.56967329    -0.78900
C283        C  0.29643453  0.39361690  0.77597714     0.81100
N284        N  0.27825937  0.41441818  0.78563829    -0.77200
C285        C  0.28932429  0.44366803  0.78820898     0.83500
N286        N  0.31887269  0.45151594  0.78242024    -0.77200
C287        C  0.33704192  0.43082343  0.77313347     0.83600
N288        N  0.32562773  0.40198399  0.76952024    -0.78900
O289        O  0.01550891  0.48036538  0.98334595    -0.80000
O290        O  0.02319003  0.46699444  0.63370845    -0.64700
O291        O  0.99692450  0.46358232  0.54403344    -1.11300
C292        C  0.47390071  0.06579110  0.55320953     1.06900
O293        O  0.48361682  0.49787863  0.64863098    -0.77900
O294        O  0.43800274  0.49142294  0.59631633    -0.65500
Ni295      Ni  0.02764464  0.45086635  0.51906175     1.34900
C296        C  0.42664636  0.48808831  0.56714355     0.85600
O297        O  0.01842529  0.42309712  0.58868981    -0.78500
O298        O  0.04716804  0.42411826  0.54983034    -0.88700
C299        C  0.00809130  0.47807265  0.65394564     0.85200
O300        O  0.05692302  0.48391270  0.53483244    -0.66900
O301        O  0.46287963  0.05258853  0.57559873    -0.86200
C302        C  0.06856579  0.48860832  0.56378040     0.86000
C303        C  0.03616500  0.41049505  0.57199859     1.07600
H304        H  0.03011340  0.02303672  0.59016731     0.39400
O305        O  0.01059063  0.01079880  0.58390369    -1.08900
O306        O  0.44176979  0.49827337  0.54549940    -0.65500
Ni307      Ni  0.49867425  0.01106617  0.53680622     1.26300
O308        O  0.05515884  0.47743539  0.58607259    -0.65800
O309        O  0.49132143  0.05285719  0.53641732    -0.78100
C310        C  0.99479799  0.49836070  0.97521460     0.85400
O311        O  0.48249068  0.01596916  0.98731502    -0.65200
Ni312      Ni  0.48142643  0.02550485  0.60627671     1.27400
Ni313      Ni  0.01090047  0.46489444  0.58868094     1.26100
H314        H  0.47487403  0.45465080  0.53999388     0.39900
O315        O  0.43582636  0.44911914  0.77854392    -0.80000
O316        O  0.07503105  0.49187424  0.81551739    -0.64700
O317        O  0.49376634  0.46035068  0.81903507    -1.11300
C318        C  0.48909431  0.07512852  0.81128871     1.06900
O319        O  0.08120760  0.02663020  0.85628478    -0.77900
O320        O  0.02804294  0.03972935  0.87685437    -0.65500
Ni321      Ni  0.47473886  0.43058738  0.78787666     1.34900
C322        C  0.00378422  0.02303227  0.88000686     0.85600
O323        O  0.05030415  0.43691793  0.81864528    -0.78500
O324        O  0.00919728  0.40725384  0.79448233    -0.88700
C325        C  0.09762474  0.01319406  0.83897299     0.85200
O326        O  0.48804111  0.44853238  0.75201695    -0.66900
O327        O  0.01565205  0.07645859  0.82722432    -0.86200
C328        C  0.01087387  0.46138413  0.74666553     0.86000
C329        C  0.03795219  0.41167118  0.80718316     1.07600
H330        H  0.02894198  0.02814329  0.78996664     0.39400
O331        O  0.02708670  0.02064101  0.81061380    -1.08900
O332        O  0.47976955  0.49877963  0.86460331    -0.65500
Ni333      Ni  0.48338726  0.00944185  0.80775368     1.26300
O334        O  0.03086494  0.47278492  0.76963476    -0.65800
O335        O  0.47190340  0.05042799  0.80567435    -0.78100
C336        C  0.42088251  0.46355117  0.79652021     0.85400
O337        O  0.43475668  0.48089494  0.81880196    -0.65200
Ni338      Ni  0.04745002  0.05041638  0.84094241     1.27400
Ni339      Ni  0.03345504  0.47517465  0.81535175     1.26100
H340        H  0.49332823  0.45181616  0.83945129     0.39900
C341        C  0.07493794  0.33445297  0.57092831     0.81100
N342        N  0.05097615  0.31257242  0.56914909    -0.77200
C343        C  0.05683434  0.28315791  0.56925922     0.83500
N344        N  0.08742563  0.27579220  0.57159038    -0.77200
C345        C  0.11177356  0.29744457  0.57356107     0.83600
N346        N  0.10511765  0.32658976  0.57287443    -0.78900
C347        C  0.06051306  0.33225958  0.79162968     0.81100
N348        N  0.09161653  0.32969049  0.80242986    -0.77200
C349        C  0.10285151  0.30219173  0.80248190     0.83500
N350        N  0.08299957  0.27782013  0.79191322    -0.77200
C351        C  0.05231983  0.28045281  0.78081997     0.83600
N352        N  0.04138433  0.30773449  0.78073801    -0.78900
C353        C  0.19386993  0.07843862  0.57256260     0.81100
N354        N  0.21729840  0.05950663  0.57413747    -0.77200
C355        C  0.21035264  0.02937278  0.57259057     0.83500
N356        N  0.17957806  0.01844806  0.56946178    -0.77200
C357        C  0.15609848  0.03716241  0.56755208     0.83600
N358        N  0.16336968  0.06703694  0.56871406    -0.78900
C359        C  0.22133295  0.08208042  0.86864403     0.81100
N360        N  0.24033024  0.06142297  0.86049528    -0.77200
C361        C  0.22977715  0.03210146  0.85784753     0.83500
N362        N  0.19970346  0.02394766  0.86183848    -0.77200
C363        C  0.18061383  0.04459351  0.86953477     0.83600
N364        N  0.19158960  0.07356669  0.87325545    -0.78900
O365        O  0.26541928  0.31511243  0.58853035    -0.80000
O366        O  0.22062174  0.17616521  0.57639079    -0.64700
O367        O  0.26781103  0.25247875  0.59271142    -1.11300
C368        C  0.26095294  0.25164979  0.98067235     1.06900
O369        O  0.25856408  0.16338872  0.55042697    -0.77900
O370        O  0.30222654  0.19720765  0.52643433    -0.65500
Ni371      Ni  0.25320222  0.28390363  0.61610138     1.34900
C372        C  0.32086588  0.21678534  0.54292252     0.85600
O373        O  0.24168259  0.20949003  0.62987821    -0.78500
O374        O  0.24196209  0.25686575  0.64787949    -0.88700
C375        C  0.23580066  0.15616527  0.56517145     0.85200
O376        O  0.21068044  0.28103073  0.59416527    -0.66900
O377        O  0.25775914  0.22363518  0.98419506    -0.86200
C378        C  0.19162173  0.25852196  0.58438691     0.86000
C379        C  0.24069928  0.22884740  0.65188740     1.07600
H380        H  0.22430753  0.22724572  0.53214185     0.39400
O381        O  0.24475704  0.22241733  0.54237443    -1.08900
O382        O  0.31123214  0.24027672  0.55422273    -0.65500
Ni383      Ni  0.27121614  0.25848759  0.54906772     1.26300
O384        O  0.20089539  0.23224096  0.58174842    -0.65800
O385        O  0.26220186  0.27118689  0.00311291    -0.78100
C386        C  0.28822576  0.31762724  0.57244675     0.85400
O387        O  0.29657391  0.29531362  0.55803350    -0.65200
Ni388      Ni  0.25719063  0.19132758  0.51717009     1.27400
Ni389      Ni  0.24226358  0.21534568  0.58570780     1.26100
H390        H  0.28817518  0.24843976  0.60386147     0.39900
O391        O  0.23391424  0.17468833  0.85741224    -0.80000
O392        O  0.25449017  0.30416520  0.81977230    -0.64700
O393        O  0.22689558  0.22175760  0.81608647    -1.11300
C394        C  0.32798205  0.20328681  0.79582122     1.06900
O395        O  0.28634257  0.30134483  0.78330778    -0.77900
O396        O  0.27504271  0.24935887  0.75015943    -0.65100
Ni397      Ni  0.20497163  0.20473065  0.84752689     1.34900
C398        C  0.25923178  0.22439718  0.74495834     0.85600
O399        O  0.19825658  0.27453344  0.82179080    -0.78500
O400        O  0.17451620  0.23322215  0.83963217    -0.88700
C401        C  0.27041466  0.31613562  0.80010854     0.85200
O402        O  0.22594445  0.22740723  0.88368907    -0.66900
O403        O  0.32804472  0.22871118  0.78344471    -0.86200
C404        C  0.24385431  0.25120994  0.88766844     0.86000
C405        C  0.17424406  0.25962469  0.82970103     1.07600
H406        H  0.29454379  0.25244103  0.83673131     0.39400
O407        O  0.28116003  0.24894576  0.81652746    -1.08900
O408        O  0.25605476  0.20568022  0.76646756    -0.65500
Ni409      Ni  0.26653544  0.20754962  0.81279266     1.26300
O410        O  0.25138460  0.26649365  0.86499581    -0.65800
O411        O  0.30670656  0.19353078  0.81111084    -0.78100
C412        C  0.24239008  0.15713028  0.83714138     0.85400
O413        O  0.25062145  0.16696692  0.81195926    -0.65200
Ni414      Ni  0.30503954  0.26389415  0.78516637     1.27400
Ni415      Ni  0.24025197  0.26299407  0.81928471     1.26100
H416        H  0.21319863  0.21795013  0.79609907     0.39900
C417        C  0.26109541  0.26072110  0.94864201    -0.12400
C418        C  0.25582909  0.26048474  0.92003980    -0.14000
C419        C  0.24030566  0.21937553  0.68385883    -0.12400
C420        C  0.24568435  0.21760468  0.71235180    -0.14000
C421        C  0.24272201  0.12519972  0.84316770    -0.15600
C422        C  0.23026246  0.11391351  0.86767758    -0.30700
H423        H  0.25006042  0.11046428  0.82558630     0.13500
H424        H  0.22085678  0.12853251  0.88392377     0.14000
C425        C  0.22914017  0.12398457  0.56970987    -0.15600
C426        C  0.20071525  0.11131437  0.57322172    -0.30700
H427        H  0.24786337  0.10977386  0.56676304     0.13500
H428        H  0.18137583  0.12525987  0.57425845     0.14000
C429        C  0.14315803  0.27154501  0.82586245    -0.15600
C430        C  0.13626365  0.29784806  0.81381190    -0.30700
H431        H  0.12389775  0.25604213  0.83061633     0.13500
H432        H  0.15468503  0.31462962  0.81005393     0.14000
C433        C  0.14582899  0.29056770  0.57782968    -0.15600
C434        C  0.15691034  0.26311039  0.57676088    -0.30700
H435        H  0.16292338  0.30977145  0.58273111     0.13500
H436        H  0.14027436  0.24363780  0.57130448     0.14000
C437        C  0.13196466  0.01587685  0.84690680    -0.15600
C438        C  0.14682009  0.03695784  0.86778751    -0.30700
H439        H  0.14526927  0.00240932  0.83306213     0.13500
H440        H  0.13343376  0.05187427  0.87988413     0.14000
C441        C  0.05757715  0.38592804  0.80787849    -0.15600
C442        C  0.04557386  0.36047796  0.79189299    -0.30700
H443        H  0.08127626  0.38774917  0.82110209     0.13500
H444        H  0.02176790  0.35933268  0.77890983     0.14000
C445        C  0.11060864  0.00291277  0.57572901    -0.15600
C446        C  0.12280969  0.02532949  0.56012048    -0.30700
H447        H  0.11676046  0.49691907  0.59026249     0.13500
H448        H  0.10787353  0.03546045  0.54130825     0.14000
C449        C  0.04381382  0.37896843  0.57816241    -0.15600
C450        C  0.06856637  0.36665738  0.56808889    -0.30700
H451        H  0.02821936  0.36534787  0.59075220     0.13500
H452        H  0.08530077  0.38089343  0.55745698     0.14000
C453        C  0.98901257  0.50431002  0.94203975    -0.12400
C454        C  0.98953448  0.50702932  0.91406812    -0.14000
C455        C  0.01582232  0.46688503  0.71467026    -0.12400
C456        C  0.01516625  0.47116724  0.68679731    -0.14000
C457        C  0.22376114  0.48158438  0.81838859    -0.12500
C458        C  0.24911043  0.00968475  0.84661144     0.09700
C459        C  0.27712060  0.01865338  0.83523016    -0.12500
C460        C  0.28292555  0.49684018  0.80156761    -0.12500
C461        C  0.27056327  0.46688106  0.79891425     0.09700
C462        C  0.24070494  0.45949993  0.80719755    -0.12500
H463        H  0.20083078  0.47515280  0.82475529     0.13700
H464        H  0.28597024  0.04186592  0.83629923     0.13700
H465        H  0.31459830  0.00568690  0.81190285     0.13700
H466        H  0.23052865  0.43666970  0.80531935     0.13700
C467        C  0.28684400  0.36167936  0.77500376    -0.15600
C468        C  0.27129943  0.34873837  0.79674091    -0.30700
H469        H  0.29742634  0.34796649  0.75884725     0.13500
H470        H  0.26164228  0.36228940  0.81376652     0.14000
C471        C  0.37042728  0.43848479  0.77203546    -0.15600
C472        C  0.38644636  0.46028370  0.79125909    -0.30700
H473        H  0.38279555  0.42337337  0.75901552     0.13500
H474        H  0.37422599  0.47413496  0.80583690     0.14000
C475        C  0.27731604  0.50547000  0.56515704    -0.12500
C476        C  0.26960731  0.47454346  0.56258263     0.09700
C477        C  0.23758032  0.46388925  0.55894903    -0.12500
C478        C  0.21396179  0.48342680  0.55861161    -0.12500
C479        C  0.23576151  0.00853652  0.57190854     0.09700
C480        C  0.26753176  0.01936840  0.57329298    -0.12500
H481        H  0.30169536  0.51443193  0.56807508     0.13700
H482        H  0.23058560  0.44023999  0.55667398     0.13700
H483        H  0.18968831  0.47419854  0.55603225     0.13700
H484        H  0.27428793  0.04304571  0.57598580     0.13700
C485        C  0.29436260  0.37267415  0.57976219    -0.15600
C486        C  0.30472896  0.34750197  0.56902316    -0.30700
H487        H  0.27315813  0.37097851  0.59079821     0.13500
H488        H  0.32475520  0.34890028  0.55623716     0.14000
C489        C  0.38165763  0.45136306  0.57398537    -0.15600
C490        C  0.39369288  0.47418997  0.55831835    -0.30700
H491        H  0.39735850  0.44038871  0.59142383     0.13500
H492        H  0.37863945  0.48367385  0.53913412     0.14000
C493        C  0.47596066  0.23678356  0.75089661    -0.12500
C494        C  0.48302823  0.20898037  0.76290683     0.09700
C495        C  0.01347469  0.20228818  0.78053484    -0.12500
C496        C  0.03705556  0.22582374  0.78344004    -0.12500
C497        C  0.03005118  0.25391003  0.77212625     0.09700
C498        C  0.49923431  0.26030286  0.75309960    -0.12500
H499        H  0.45203461  0.24091453  0.74125348     0.13700
H500        H  0.01890000  0.18143689  0.79121904     0.13700
H501        H  0.06011281  0.22255300  0.79627965     0.13700
H502        H  0.49259861  0.28182432  0.74508004     0.13700
C503        C  0.44635135  0.10935810  0.79388128    -0.15600
C504        C  0.47657968  0.10408189  0.80355835    -0.30700
H505        H  0.42757271  0.09166582  0.79284019     0.13500
H506        H  0.49446474  0.12274348  0.80574662     0.14000
C507        C  0.37295763  0.18936258  0.77112965    -0.15600
C508        C  0.35397473  0.18423893  0.79282044    -0.30700
H509        H  0.36844258  0.20725992  0.75496415     0.13500
H510        H  0.35845061  0.16681219  0.80956498     0.14000
C511        C  0.47558216  0.24824291  0.56445369    -0.12500
C512        C  0.48147895  0.21804868  0.56181462     0.09700
C513        C  0.00972675  0.20685303  0.56267675    -0.12500
C514        C  0.03503390  0.22895872  0.56550015    -0.12500
C515        C  0.02983716  0.25940617  0.56641899     0.09700
C516        C  0.50040369  0.27082905  0.56817672    -0.12500
H517        H  0.45170913  0.25451885  0.56367365     0.13700
H518        H  0.01494717  0.18375020  0.56212158     0.13700
H519        H  0.05874546  0.22209920  0.56694394     0.13700
H520        H  0.49474073  0.29373651  0.57004301     0.13700
C521        C  0.44420277  0.11065247  0.56011617    -0.15600
C522        C  0.46633321  0.09717774  0.54674703    -0.30700
H523        H  0.41524511  0.09781447  0.06328962     0.13500
H524        H  0.47966662  0.10968529  0.53111351     0.14000
C525        C  0.36633793  0.18528493  0.54397239    -0.15600
C526        C  0.35534484  0.21209324  0.54913999    -0.30700
H527        H  0.34944407  0.16652656  0.53568593     0.13500
H528        H  0.37179627  0.23070597  0.55888095     0.14000
C529        C  0.43339213  0.64366406  0.56386086     0.81100
N530        N  0.45683086  0.66787876  0.05954702    -0.77200
C531        C  0.45049818  0.69710188  0.05739952     0.83500
N532        N  0.41978533  0.70405864  0.05352114    -0.77200
C533        C  0.39775184  0.68141932  0.55782906     0.83600
N534        N  0.40353927  0.65225834  0.56019168    -0.78900
C535        C  0.40739679  0.67773978  0.31303956     0.81100
N536        N  0.41672260  0.65070058  0.32224322    -0.77200
C537        C  0.44809386  0.64696608  0.32917157     0.83500
N538        N  0.46967551  0.67005084  0.32713774    -0.77200
C539        C  0.46065436  0.69681031  0.31755587     0.83600
N540        N  0.42952441  0.70047146  0.31062512    -0.78900
C541        C  0.32168608  0.89606036  0.05251158     0.81100
N542        N  0.35239394  0.90717949  0.05457840    -0.77200
C543        C  0.35979169  0.93717820  0.05426945     0.83500
N544        N  0.33639420  0.95591421  0.05280491    -0.77200
C545        C  0.30576934  0.94523061  0.05142903     0.83600
N546        N  0.29867758  0.91530679  0.05115673    -0.78900
C547        C  0.29928280  0.90036381  0.28022779     0.81100
N548        N  0.28200975  0.92024807  0.29292948    -0.77200
C549        C  0.29176120  0.94971472  0.29469893     0.83500
N550        N  0.31893449  0.95886354  0.28449729    -0.77200
C551        C  0.33651998  0.93930512  0.27234094     0.83600
N552        N  0.32659561  0.90995209  0.26996781    -0.78900
O553        O  0.02538415  0.98042524  0.48185936    -0.80000
O554        O  0.02818671  0.97387129  0.12904020    -0.64700
O555        O  0.00500560  0.97339023  0.03863625    -1.11300
C556        C  0.47017018  0.56979796  0.06059654     1.06900
O557        O  0.48761345  0.00577063  0.13673751    -0.77900
O558        O  0.44433217  0.99495736  0.08336297    -0.65500
Ni559      Ni  0.03476936  0.95989525  0.01302934     1.34900
C560        C  0.43370624  0.99123596  0.05406119     0.85600
O561        O  0.02405764  0.93141371  0.08303306    -0.78500
O562        O  0.04910925  0.92877373  0.04122746    -0.88700
C563        C  0.01379835  0.98578895  0.14945442     0.85200
O564        O  0.06770958  0.98862956  0.03174127    -0.66900
O565        O  0.45918772  0.55778699  0.08374310    -0.86200
C566        C  0.07802313  0.99357295  0.06095705     0.86000
C567        C  0.03912837  0.91701753  0.06504068     1.07600
H568        H  0.01989676  0.52489126  0.09159901     0.39400
O569        O  0.00035574  0.51271213  0.08511201    -1.08900
O570        O  0.44794321  0.00337913  0.03278860    -0.65500
Ni571      Ni  0.49368613  0.51426641  0.04518631     1.26300
O572        O  0.06227197  0.98498788  0.08272871    -0.65800
O573        O  0.48698557  0.55596533  0.04395593    -0.78100
C574        C  0.00393489  0.99786860  0.47421896     0.85400
O575        O  0.47601298  0.50851121  0.49920681    -0.65200
Ni576      Ni  0.47562697  0.52960975  0.11444114     1.27400
Ni577      Ni  0.01746556  0.97325993  0.08361564     1.26100
H578        H  0.48283965  0.96269135  0.02726843     0.39900
O579        O  0.43126359  0.97062502  0.26301953    -0.80000
O580        O  0.08239319  0.99849353  0.31346064    -0.64700
O581        O  0.48530064  0.96645397  0.30528686    -1.11300
C582        C  0.46723585  0.56611819  0.32847321     1.06900
O583        O  0.06674170  0.52395361  0.35419516    -0.77900
O584        O  0.01485731  0.52255067  0.38201633    -0.65500
Ni585      Ni  0.46124593  0.94174703  0.27231109     1.34900
C586        C  0.98907657  0.50787609  0.38425855     0.85600
O587        O  0.05538426  0.94379230  0.31165286    -0.78500
O588        O  0.01217093  0.91385963  0.29277406    -0.88700
C589        C  0.08068691  0.51591688  0.33175497     0.85200
O590        O  0.48093353  0.95504284  0.23762156    -0.66900
O591        O  0.99157438  0.56490692  0.34305592    -0.86200
C592        C  0.01733906  0.97003071  0.24296484     0.86000
C593        C  0.04155470  0.91826851  0.30355632     1.07600
H594        H  0.00989513  0.52482013  0.29472965     0.39400
O595        O  0.00913827  0.51508752  0.31448378    -1.08900
O596        O  0.47922518  0.00276771  0.35527949    -0.65500
Ni597      Ni  0.47141499  0.50269009  0.31787077     1.26300
O598        O  0.03639299  0.98300351  0.26587915    -0.65800
O599        O  0.45477412  0.54094774  0.31679500    -0.78100
C600        C  0.41673009  0.98094225  0.28404524     0.85400
O601        O  0.43155292  0.99557630  0.30812424    -0.65200
Ni602      Ni  0.02819938  0.54302367  0.34750311     1.27400
Ni603      Ni  0.04014759  0.98237111  0.31177516     1.26100
H604        H  0.48304445  0.95659226  0.32469398     0.39900
C605        C  0.07062602  0.83769713  0.06437770     0.81100
N606        N  0.04590535  0.81660704  0.06346440    -0.77200
C607        C  0.05097980  0.78704842  0.06588626     0.83500
N608        N  0.08130136  0.77890067  0.06959142    -0.77200
C609        C  0.10618808  0.79975339  0.07074720     0.83600
N610        N  0.10047793  0.82894523  0.06780864    -0.78900
C611        C  0.06174043  0.83780146  0.30947710     0.81100
N612        N  0.09329400  0.83463674  0.31242677    -0.77200
C613        C  0.10441745  0.80838211  0.32226642     0.83500
N614        N  0.08387699  0.78575267  0.32888059    -0.77200
C615        C  0.05258607  0.78905145  0.32597974     0.83600
N616        N  0.04181396  0.81500863  0.31601122    -0.78900
C617        C  0.18491117  0.58040986  0.07159073     0.81100
N618        N  0.20859171  0.56175136  0.07418969    -0.77200
C619        C  0.20216906  0.53161033  0.07376402     0.83500
N620        N  0.17149788  0.52023987  0.07076607    -0.77200
C621        C  0.14758032  0.53854515  0.06797982     0.83600
N622        N  0.15445493  0.56855582  0.06796900    -0.78900
C623        C  0.19483680  0.58047295  0.30571844     0.81100
N624        N  0.21405528  0.56358955  0.29147388    -0.77200
C625        C  0.20375996  0.53531249  0.28067920     0.83500
N626        N  0.17449638  0.52426169  0.28426197    -0.77200
C627        C  0.15566325  0.54039167  0.29906231     0.83600
N628        N  0.16577649  0.56858642  0.30999259    -0.78900
O629        O  0.25053472  0.81520497  0.07553621    -0.80000
O630        O  0.21404005  0.67851793  0.07197233    -0.64700
O631        O  0.26108205  0.75521911  0.08545250    -1.11300
C632        C  0.26841449  0.74570722  0.47485157     1.06900
O633        O  0.25140175  0.66363813  0.04630382    -0.77900
O634        O  0.29809912  0.69791125  0.02727514    -0.65500
Ni635      Ni  0.24766712  0.78717187  0.10850412     1.34900
C636        C  0.31608162  0.71943892  0.04121222     0.85600
O637        O  0.23518270  0.71411120  0.12453529    -0.78500
O638        O  0.24499050  0.76180953  0.14338215    -0.88700
C639        C  0.22818083  0.65763319  0.06089717     0.85200
O640        O  0.20325754  0.78115270  0.09469358    -0.66900
O641        O  0.26407289  0.71781179  0.47865342    -0.86200
C642        C  0.18478898  0.75961099  0.08143835     0.86000
C643        C  0.24051679  0.73391369  0.14709564     1.07600
H644        H  0.21904961  0.72714548  0.02519719     0.39400
O645        O  0.23951331  0.72332075  0.03627869    -1.08900
O646        O  0.30585314  0.74417232  0.04846415    -0.65500
Ni647      Ni  0.26479479  0.76058090  0.04203849     1.26300
O648        O  0.19462603  0.73450169  0.07430400    -0.65800
O649        O  0.27055833  0.76573326  0.49703427    -0.78100
C650        C  0.27427289  0.82063872  0.06148610     0.85400
O651        O  0.28755098  0.79940116  0.05012465    -0.65200
Ni652      Ni  0.25372532  0.69161360  0.01324472     1.27400
Ni653      Ni  0.23601268  0.71790669  0.07987719     1.26100
H654        H  0.28150766  0.75131341  0.09656125     0.39900
O655        O  0.22088982  0.67128311  0.33558548    -0.80000
O656        O  0.25394234  0.81058809  0.32087213    -0.64700
O657        O  0.22718374  0.72744485  0.31002351    -1.11300
C658        C  0.33438552  0.72133734  0.29536282     1.06900
O659        O  0.27417690  0.80736170  0.27688668    -0.77900
O660        O  0.28105494  0.75736185  0.24550115    -0.65100
Ni661      Ni  0.20669422  0.71003060  0.34255222     1.34900
C662        C  0.26413566  0.73304279  0.24000108     0.85600
O663        O  0.19782829  0.77952532  0.31791129    -0.78500
O664        O  0.18695716  0.74558100  0.35228163    -0.88700
C665        C  0.26637463  0.82299167  0.29905203     0.85200
O666        O  0.24233212  0.72093744  0.37381674    -0.66900
O667        O  0.33340989  0.74828411  0.28735635    -0.86200
C668        C  0.25245660  0.74771352  0.38158647     0.86000
C669        C  0.18011900  0.76824623  0.33641451     1.07600
H670        H  0.29396028  0.76025669  0.33358610     0.39400
O671        O  0.28076178  0.75722718  0.31322817    -1.08900
O672        O  0.25810479  0.71551571  0.26134638    -0.65500
Ni673      Ni  0.26877175  0.71563540  0.30672033     1.26300
O674        O  0.24928299  0.76884055  0.36238930    -0.65800
O675        O  0.31109923  0.70566279  0.30357957    -0.78100
C676        C  0.23634709  0.65936390  0.31613574     0.85400
O677        O  0.25542349  0.67423414  0.30149034    -0.65200
Ni678      Ni  0.30289278  0.77698336  0.28323820     1.27400
Ni679      Ni  0.23977096  0.76917121  0.31629301     1.26100
H680        H  0.21334342  0.72402160  0.29007543     0.39900
C681        C  0.26934843  0.75418678  0.44286019    -0.12400
C682        C  0.26483231  0.75433107  0.41433144    -0.14000
C683        C  0.24364657  0.72515349  0.17929703    -0.12400
C684        C  0.25126026  0.72543786  0.20760334    -0.14000
C685        C  0.23081701  0.62685275  0.30946487    -0.15600
C686        C  0.20458772  0.61168796  0.31627864    -0.30700
H687        H  0.24664535  0.61593193  0.29619346     0.13500
H688        H  0.18821650  0.62319523  0.32832702     0.14000
C689        C  0.22021242  0.62555673  0.06593649    -0.15600
C690        C  0.19181899  0.61339911  0.07076961    -0.30700
H691        H  0.23836155  0.61076432  0.06272428     0.13500
H692        H  0.17279837  0.62765421  0.07209358     0.14000
C693        C  0.14997342  0.78046586  0.33985658    -0.15600
C694        C  0.13811545  0.80314756  0.32346971    -0.30700
H695        H  0.13550074  0.76820976  0.35472917     0.13500
H696        H  0.15239032  0.81637196  0.30921963     0.14000
C697        C  0.13978734  0.79201956  0.07639488    -0.15600
C698        C  0.15020078  0.76438036  0.07440475    -0.30700
H699        H  0.15721620  0.81087166  0.08217273     0.13500
H700        H  0.13336180  0.74529333  0.06745008     0.14000
C701        C  0.11177126  0.53065433  0.32904161    -0.15600
C702        C  0.12489286  0.52622770  0.30307410    -0.30700
H703        H  0.12329962  0.54630578  0.34776823     0.13500
H704        H  0.11378484  0.50986353  0.28486392     0.14000
C705        C  0.06055994  0.89236947  0.30782657    -0.15600
C706        C  0.04755221  0.86497707  0.29891874    -0.30700
H707        H  0.08447427  0.89551096  0.32053542     0.13500
H708        H  0.02320265  0.86203155  0.28733454     0.14000
C709        C  0.10102538  0.50507800  0.07712990    -0.15600
C710        C  0.11429127  0.52594745  0.06009293    -0.30700
H711        H  0.12546315  0.99997845  0.08996989     0.13500
H712        H  0.10012316  0.53444451  0.03963342     0.14000
C713        C  0.04454442  0.88512770  0.07181933    -0.15600
C714        C  0.06572343  0.86983229  0.05897931    -0.30700
H715        H  0.03053378  0.87386136  0.08774720     0.13500
H716        H  0.08132833  0.88168493  0.04493610     0.14000
C717        C  0.99766414  0.00501231  0.44146997    -0.12400
C718        C  0.99699932  0.01010542  0.41383550    -0.14000
C719        C  0.02186528  0.97537950  0.21066807    -0.12400
C720        C  0.02089399  0.97916597  0.18256466    -0.14000
C721        C  0.23591428  0.98398118  0.34219874    -0.12500
C722        C  0.22506945  0.51449371  0.27004771     0.09700
C723        C  0.25782275  0.52050188  0.27717719    -0.12500
C724        C  0.28390205  0.00233009  0.30816901    -0.12500
C725        C  0.27494464  0.97177646  0.30986886     0.09700
C726        C  0.25101766  0.96276621  0.32723571    -0.12500
H727        H  0.21724001  0.97642377  0.35520145     0.13700
H728        H  0.26811372  0.54230451  0.28625319     0.13700
H729        H  0.30259537  0.50233537  0.28272660     0.13700
H730        H  0.24400836  0.93939797  0.32933853     0.13700
C731        C  0.29013619  0.86830607  0.27930596    -0.15600
C732        C  0.27156369  0.85565035  0.29875778    -0.30700
H733        H  0.30117228  0.85441761  0.26368540     0.13500
H734        H  0.26193222  0.86918771  0.31580926     0.14000
C735        C  0.36837487  0.94935894  0.26700037    -0.15600
C736        C  0.38272631  0.97483605  0.28121430    -0.30700
H737        H  0.38162069  0.93396901  0.25534613     0.13500
H738        H  0.37028834  0.98916489  0.29505773     0.14000
C739        C  0.28866194  0.99700279  0.05540354    -0.12500
C740        C  0.28070169  0.96613828  0.05237237     0.09700
C741        C  0.24885004  0.95563144  0.05146822    -0.12500
C742        C  0.22563373  0.97553234  0.05365704    -0.12500
C743        C  0.22812158  0.51122958  0.07389439     0.09700
C744        C  0.25983697  0.52253082  0.07576401    -0.12500
H745        H  0.31285441  0.00602056  0.05630285     0.13700
H746        H  0.24182109  0.93199254  0.04917844     0.13700
H747        H  0.20136230  0.96674937  0.05269993     0.13700
H748        H  0.26616996  0.54628961  0.07825713     0.13700
C749        C  0.31335141  0.86327966  0.05316420    -0.15600
C750        C  0.28418697  0.85242862  0.05736847    -0.30700
H751        H  0.33157258  0.84813726  0.05174449     0.13500
H752        H  0.26675673  0.86802517  0.06045569     0.14000
C753        C  0.39317537  0.94981357  0.05898372    -0.15600
C754        C  0.40239238  0.97462180  0.04467017    -0.30700
H755        H  0.41020937  0.93928532  0.07550470     0.13500
H756        H  0.38599198  0.98374073  0.02633303     0.14000
C757        C  0.47559854  0.74943005  0.30432767    -0.12500
C758        C  0.48455618  0.72174409  0.31527300     0.09700
C759        C  0.01611275  0.71154733  0.33564506    -0.12500
C760        C  0.03865646  0.73505174  0.33337165    -0.12500
C761        C  0.02993715  0.76439307  0.33184129     0.09700
C762        C  0.49834042  0.77301602  0.30276294    -0.12500
H763        H  0.45101306  0.75294254  0.29704847     0.13700
H764        H  0.02321062  0.68901928  0.33567977     0.13700
H765        H  0.06260033  0.73013962  0.33169968     0.13700
H766        H  0.49076584  0.79409451  0.29428539     0.13700
C767        C  0.46015186  0.61857776  0.33880419    -0.15600
C768        C  0.44818399  0.59212566  0.32522921    -0.30700
H769        H  0.48299665  0.62026260  0.35379037     0.13500
H770        H  0.42585604  0.59029830  0.30937514     0.14000
C771        C  0.37365499  0.68359446  0.30803781    -0.15600
C772        C  0.36512821  0.70922721  0.29534008    -0.30700
H773        H  0.35652660  0.66828169  0.31681869     0.13500
H774        H  0.38271371  0.72389369  0.28631682     0.14000
C775        C  0.47079102  0.75116258  0.05519406    -0.12500
C776        C  0.47691939  0.72119496  0.05960352     0.09700
C777        C  0.00365850  0.71105328  0.06022122    -0.12500
C778        C  0.02887707  0.73316591  0.06287711    -0.12500
C779        C  0.02373238  0.76364193  0.06377986     0.09700
C780        C  0.49551851  0.77377377  0.05761546    -0.12500
H781        H  0.44678868  0.75724710  0.04982029     0.13700
H782        H  0.00888849  0.68796033  0.05946578     0.13700
H783        H  0.05253086  0.72624114  0.06398130     0.13700
H784        H  0.48971230  0.79648856  0.05398428     0.13700
C785        C  0.43924575  0.61416359  0.06294300    -0.15600
C786        C  0.46347064  0.60108114  0.05310421    -0.30700
H787        H  0.42081847  0.59855883  0.57949859     0.13500
H788        H  0.47898438  0.61370066  0.03955603     0.14000
C789        C  0.36191703  0.68848637  0.04589221    -0.15600
C790        C  0.35061066  0.71547287  0.04891109    -0.30700
H791        H  0.34523789  0.66927046  0.03888181     0.13500
H792        H  0.36677269  0.73475054  0.05714699     0.14000
C793        C  0.43298677  0.64590648  0.05806333     0.81100
N794        N  0.45804808  0.66492645  0.56563470    -0.77200
C795        C  0.45282713  0.69450436  0.56381921     0.83500
N796        N  0.42248663  0.70249686  0.55976765    -0.77200
C797        C  0.39577808  0.68220580  0.05189379     0.83600
N798        N  0.40270633  0.65335371  0.05440537    -0.78900
C799        C  0.40918168  0.67256560  0.80077851     0.81100
N800        N  0.41988084  0.64655557  0.81207914    -0.77200
C801        C  0.45111790  0.64213036  0.81339275     0.83500
N802        N  0.47105725  0.66339243  0.80369156    -0.77200
C803        C  0.46055093  0.68888390  0.79201940     0.83600
N804        N  0.42975749  0.69333508  0.79087813    -0.78900
C805        C  0.32396912  0.89859203  0.56196458     0.81100
N806        N  0.35462616  0.90964344  0.56365347    -0.77200
C807        C  0.36236500  0.93964653  0.56471448     0.83500
N808        N  0.33924063  0.95860763  0.56508332    -0.77200
C809        C  0.30857531  0.94798336  0.56430917     0.83600
N810        N  0.30124523  0.91796322  0.56260325    -0.78900
C811        C  0.30422592  0.89739925  0.78350459     0.81100
N812        N  0.28791445  0.91706580  0.79772916    -0.77200
C813        C  0.29910607  0.94610774  0.80218542     0.83500
N814        N  0.32689194  0.95514794  0.79285432    -0.77200
C815        C  0.34344421  0.93571290  0.77887884     0.83600
N816        N  0.33198544  0.90679788  0.77406085    -0.78900
O817        O  0.02324347  0.98662557  0.97959099    -0.80000
O818        O  0.02714946  0.96961653  0.63056826    -0.64700
O819        O  0.00625887  0.96897206  0.54041566    -1.11300
C820        C  0.46540799  0.56464387  0.56248645     1.06900
O821        O  0.49691091  0.00303919  0.64188188    -0.77900
O822        O  0.45133493  0.99314101  0.59005659    -0.65500
Ni823      Ni  0.03744616  0.95556537  0.51676513     1.34900
C824        C  0.43972349  0.98886026  0.56102624     0.85600
O825        O  0.02201633  0.92690905  0.58477501    -0.78500
O826        O  0.05229109  0.92642996  0.54702068    -0.88700
C827        C  0.01427344  0.98342511  0.65082252     0.85200
O828        O  0.06834398  0.98591318  0.53584816    -0.66900
O829        O  0.45292241  0.55139330  0.58409079    -0.86200
C830        C  0.07839097  0.98889096  0.56530731     0.86000
C831        C  0.03943411  0.91345247  0.56852288     1.07600
H832        H  0.02101530  0.51897015  0.59154266     0.39400
O833        O  0.00175642  0.50610259  0.58673947    -1.08900
O834        O  0.45410663  0.99903556  0.53889880    -0.65500
Ni835      Ni  0.48692542  0.50885913  0.54433228     1.26300
O836        O  0.06235721  0.97872809  0.58607049    -0.65800
O837        O  0.48195043  0.55100632  0.54539111    -0.78100
C838        C  0.00187349  0.00422843  0.97228535     0.85400
O839        O  0.48257473  0.51155258  0.99995714    -0.65200
Ni840      Ni  0.46939535  0.52226579  0.61391106     1.27400
Ni841      Ni  0.01721769  0.96894640  0.58536888     1.26100
H842        H  0.48830373  0.95706227  0.53452671     0.39900
O843        O  0.43900141  0.95907476  0.76979291    -0.80000
O844        O  0.08474955  0.99723341  0.81509677    -0.64700
O845        O  0.49671524  0.96953427  0.80965565    -1.11300
C846        C  0.47238926  0.56238537  0.82526604     1.06900
O847        O  0.07406240  0.52785291  0.85191829    -0.77900
O848        O  0.02161622  0.52522413  0.87907822    -0.65500
Ni849      Ni  0.47819998  0.94079136  0.77719061     1.34900
C850        C  0.99570204  0.51124626  0.88222776     0.85600
O851        O  0.05700120  0.94328053  0.81687666    -0.78500
O852        O  0.01621219  0.91567805  0.78932036    -0.88700
C853        C  0.08879680  0.51164864  0.83538059     0.85200
O854        O  0.49213864  0.96211238  0.74363850    -0.66900
O855        O  0.99609393  0.56472370  0.83766180    -0.86200
C856        C  0.01908970  0.97016271  0.74421129     0.86000
C857        C  0.04437546  0.91874731  0.80400212     1.07600
H858        H  0.01731939  0.52083200  0.79182577     0.39400
O859        O  0.01604732  0.51310123  0.81249019    -1.08900
O860        O  0.48490498  0.01023090  0.85320574    -0.65500
Ni861      Ni  0.47614542  0.49809489  0.81888736     1.26300
O862        O  0.04024855  0.97947647  0.76730524    -0.65800
O863        O  0.45942404  0.53631241  0.81781484    -0.78100
C864        C  0.42532678  0.97574460  0.78696753     0.85400
O865        O  0.44010096  0.99611372  0.80579114    -0.65200
Ni866      Ni  0.03380909  0.54402001  0.84314799     1.27400
Ni867      Ni  0.04223566  0.98207540  0.81320355     1.26100
H868        H  0.49362922  0.96129093  0.82969046     0.39900
C869        C  0.07256811  0.83567148  0.56665957     0.81100
N870        N  0.04834790  0.81407629  0.56549706    -0.77200
C871        C  0.05417916  0.78466310  0.56674838     0.83500
N872        N  0.08466261  0.77721833  0.56957392    -0.77200
C873        C  0.10895201  0.79867594  0.57089931     0.83600
N874        N  0.10258126  0.82768359  0.56912338    -0.78900
C875        C  0.06227050  0.83707755  0.80404154     0.81100
N876        N  0.09365809  0.83268829  0.80718090    -0.77200
C877        C  0.10316452  0.80512718  0.81433963     0.83500
N878        N  0.08131804  0.78285098  0.81867746    -0.77200
C879        C  0.05039421  0.78716023  0.81574478     0.83600
N880        N  0.04102399  0.81426549  0.80805794    -0.78900
C881        C  0.18011456  0.58379419  0.56397371     0.81100
N882        N  0.20312113  0.56470679  0.56416308    -0.77200
C883        C  0.19615285  0.53479699  0.56249659     0.83500
N884        N  0.16558886  0.52386346  0.56091468    -0.77200
C885        C  0.14214665  0.54245384  0.56060485     0.83600
N886        N  0.14943805  0.57254376  0.56172492    -0.78900
C887        C  0.21309878  0.58479233  0.84694759     0.81100
N888        N  0.23030903  0.56362990  0.83650224    -0.77200
C889        C  0.21844193  0.53470392  0.83336514     0.83500
N890        N  0.18910679  0.52738724  0.83993931    -0.77200
C891        C  0.17175634  0.54843920  0.85005718     0.83600
N892        N  0.18387285  0.57712250  0.85377440    -0.78900
O893        O  0.25171457  0.81509656  0.57553891    -0.80000
O894        O  0.21493611  0.68021666  0.56923372    -0.64700
O895        O  0.26346145  0.75567467  0.58466162    -1.11300
C896        C  0.26159260  0.74488459  0.97483743     1.06900
O897        O  0.25277565  0.66422245  0.54515606    -0.77900
O898        O  0.30159613  0.69848290  0.53032459    -0.65500
Ni899      Ni  0.24992729  0.78701511  0.60848690     1.34900
C900        C  0.31942393  0.72057657  0.54319756     0.85600
O901        O  0.23554091  0.71435075  0.62244112    -0.78500
O902        O  0.24804117  0.76114951  0.64315308    -0.88700
C903        C  0.22841388  0.65897479  0.55825645     0.85200
O904        O  0.20545835  0.78060978  0.59541364    -0.66900
O905        O  0.25647542  0.71697246  0.97821295    -0.86200
C906        C  0.18735925  0.75986113  0.58012799     0.86000
C907        C  0.24186592  0.73326228  0.64578394     1.07600
H908        H  0.22270945  0.72790457  0.52307076     0.39400
O909        O  0.24292715  0.72428059  0.53485540    -1.08900
O910        O  0.30922038  0.74588580  0.54828651    -0.65500
Ni911      Ni  0.26783562  0.76178129  0.54138170     1.26300
O912        O  0.19734818  0.73555789  0.57120106    -0.65800
O913        O  0.26650655  0.76441406  0.99760513    -0.78100
C914        C  0.27596315  0.82168455  0.56264980     0.85400
O915        O  0.28971490  0.80115872  0.55040867    -0.65200
Ni916      Ni  0.25810659  0.69246248  0.51293075     1.27400
Ni917      Ni  0.23805846  0.71866557  0.57810332     1.26100
H918        H  0.28372263  0.75140760  0.59586351     0.39900
O919        O  0.23947539  0.67712448  0.84737725    -0.80000
O920        O  0.25520505  0.80748036  0.81936886    -0.64700
O921        O  0.23086813  0.72441141  0.80861005    -1.11300
C922        C  0.33668533  0.71857733  0.79198567     1.06900
O923        O  0.27528860  0.80476515  0.77498159    -0.77900
O924        O  0.28024269  0.75441377  0.74316167    -0.65100
Ni925      Ni  0.20777339  0.70424483  0.83695502     1.34900
C926        C  0.26475128  0.72931279  0.73810592     0.85600
O927        O  0.19942083  0.77533194  0.81959251    -0.78500
O928        O  0.17527482  0.73054904  0.82790891    -0.88700
C929        C  0.26770851  0.82006228  0.79760978     0.85200
O930        O  0.22412699  0.72639109  0.87506597    -0.66900
O931        O  0.33458148  0.74510189  0.78263838    -0.86200
C932        C  0.24347203  0.74906077  0.88152281     0.86000
C933        C  0.17498541  0.75834790  0.82305463     1.07600
H934        H  0.29687764  0.75829646  0.83044744     0.39400
O935        O  0.28309449  0.75475759  0.81047886    -1.08900
O936        O  0.26101366  0.71112172  0.75967546    -0.65500
Ni937      Ni  0.27221175  0.71290637  0.80534019     1.26300
O938        O  0.25347943  0.76520609  0.86066506    -0.65800
O939        O  0.31441219  0.70316519  0.80214681    -0.78100
C940        C  0.24792156  0.66024630  0.82654060     0.85400
O941        O  0.25947586  0.67131588  0.80348966    -0.65200
Ni942      Ni  0.30403386  0.77415740  0.77978871     1.27400
Ni943      Ni  0.24185052  0.76594877  0.81525201     1.26100
H944        H  0.21797371  0.72161125  0.78807089     0.39900
C945        C  0.26020562  0.75429322  0.94288858    -0.12400
C946        C  0.25463223  0.75570143  0.91449762    -0.14000
C947        C  0.24396260  0.72315803  0.67753877    -0.12400
C948        C  0.25114196  0.72187388  0.70581965    -0.14000
C949        C  0.24329572  0.62782562  0.82894110    -0.15600
C950        C  0.22427394  0.61632101  0.84850533    -0.30700
H951        H  0.25266000  0.61348073  0.81240190     0.13500
H952        H  0.21326768  0.63097088  0.86340482     0.14000
C953        C  0.21807031  0.62730823  0.56172899    -0.15600
C954        C  0.18860771  0.61656248  0.56488277    -0.30700
H955        H  0.23552702  0.61170928  0.55873436     0.13500
H956        H  0.17043361  0.63173420  0.56639299     0.14000
C957        C  0.14382997  0.76997080  0.82156228    -0.15600
C958        C  0.13661754  0.79819791  0.81633369    -0.30700
H959        H  0.12519866  0.75314711  0.82475019     0.13500
H960        H  0.15469471  0.81545894  0.81291293     0.14000
C961        C  0.14254930  0.79173104  0.57562132    -0.15600
C962        C  0.15299757  0.76435599  0.57292102    -0.30700
H963        H  0.15978641  0.81071057  0.58162307     0.13500
H964        H  0.13631444  0.74524012  0.56551844     0.14000
C965        C  0.12312243  0.51598545  0.83922059    -0.15600
C966        C  0.13864915  0.54109821  0.85287505    -0.30700
H967        H  0.13542059  0.49969535  0.82766625     0.13500
H968        H  0.12601999  0.55810015  0.86287595     0.14000
C969        C  0.06284200  0.89225307  0.80698496    -0.15600
C970        C  0.04954666  0.86553568  0.79540649    -0.30700
H971        H  0.08617604  0.89414677  0.82102209     0.13500
H972        H  0.02559071  0.86381020  0.78274348     0.14000
C973        C  0.10002302  0.50533164  0.57172207    -0.15600
C974        C  0.10884579  0.52964061  0.55639373    -0.30700
H975        H  0.12464992  0.99452763  0.59634271     0.13500
H976        H  0.09156526  0.53969316  0.53970605     0.14000
C977        C  0.04487148  0.88167783  0.57475071    -0.15600
C978        C  0.06704516  0.86758830  0.56235683    -0.30700
H979        H  0.03017500  0.86956575  0.58948645     0.13500
H980        H  0.08302005  0.88032024  0.54938355     0.14000
C981        C  0.99682342  0.01291204  0.93961973    -0.12400
C982        C  0.99758259  0.01799436  0.91196436    -0.14000
C983        C  0.02403357  0.97502243  0.71214258    -0.12400
C984        C  0.02223230  0.97797106  0.68394287    -0.14000
C985        C  0.23844829  0.97929511  0.84481564    -0.12500
C986        C  0.23637381  0.51146034  0.82146666     0.09700
C987        C  0.26602651  0.51887820  0.81276374    -0.12500
C988        C  0.29343466  0.99787779  0.82108197    -0.12500
C989        C  0.28217362  0.96766244  0.81818018     0.09700
C990        C  0.25482606  0.95846054  0.83067953    -0.12500
H991        H  0.21704557  0.97165011  0.85366582     0.13700
H992        H  0.27627192  0.54168996  0.81464246     0.13700
H993        H  0.30583853  0.50336842  0.79521716     0.13700
H994        H  0.24581846  0.93527409  0.82917734     0.13700
C995        C  0.29356233  0.86557960  0.78028293    -0.15600
C996        C  0.27352695  0.85269791  0.79819746    -0.30700
H997        H  0.30483810  0.85190190  0.76467354     0.13500
H998        H  0.26359716  0.86594246  0.81526842     0.14000
C999        C  0.37546617  0.94486954  0.77293580    -0.15600
C1000       C  0.39100602  0.97060561  0.78541833    -0.30700
H1001       H  0.38775211  0.92853985  0.76143800     0.13500
H1002       H  0.37917573  0.98638347  0.79818834     0.14000
C1003       C  0.29102678  0.99984064  0.57076068    -0.12500
C1004       C  0.28351270  0.96885631  0.56681827     0.09700
C1005       C  0.25180274  0.95799288  0.56594692    -0.12500
C1006       C  0.22832505  0.97750472  0.56845894    -0.12500
C1007       C  0.22155348  0.51429385  0.56193049     0.09700
C1008       C  0.25352560  0.52515128  0.56482718    -0.12500
H1009       H  0.31514100  0.00911712  0.57181853     0.13700
H1010       H  0.24498678  0.93432560  0.56315873     0.13700
H1011       H  0.20421164  0.96818725  0.56732702     0.13700
H1012       H  0.26024368  0.54884619  0.56726797     0.13700
C1013       C  0.31558586  0.86561846  0.56023862    -0.15600
C1014       C  0.28588690  0.85395498  0.56114515    -0.30700
H1015       H  0.33419667  0.85081572  0.55929209     0.13500
H1016       H  0.26785076  0.86906328  0.56365612     0.14000
C1017       C  0.39608033  0.95158126  0.56968294    -0.15600
C1018       C  0.40732386  0.97372603  0.55273549    -0.30700
H1019       H  0.41198825  0.94215563  0.58821495     0.13500
H1020       H  0.39209126  0.98142837  0.53253421     0.14000
C1021       C  0.47286588  0.74073274  0.77554329    -0.12500
C1022       C  0.48300015  0.71271713  0.78379809     0.09700
C1023       C  0.01474575  0.71041419  0.83071097    -0.12500
C1024       C  0.03690580  0.73400455  0.82755005    -0.12500
C1025       C  0.02717668  0.76239966  0.82019309     0.09700
C1026       C  0.49480871  0.76462742  0.77298448    -0.12500
H1027       H  0.44810458  0.74461993  0.77257976     0.13700
H1028       H  0.02288776  0.68869262  0.83588984     0.13700
H1029       H  0.06160380  0.72987014  0.83051967     0.13700
H1030       H  0.48638929  0.78631083  0.76819989     0.13700
C1031       C  0.46531787  0.61573183  0.82652330    -0.15600
C1032       C  0.45263127  0.58779203  0.81982205    -0.30700
H1033       H  0.48978512  0.61943046  0.83762484     0.13500
H1034       H  0.42865443  0.58377163  0.80745806     0.14000
C1035       C  0.37609693  0.67988027  0.80104668    -0.15600
C1036       C  0.36730970  0.70646133  0.79069037    -0.30700
H1037       H  0.35969512  0.66444805  0.81068955     0.13500
H1038       H  0.38420780  0.72148944  0.78118085     0.14000
C1039       C  0.47462954  0.74827533  0.56312414    -0.12500
C1040       C  0.47993397  0.71797697  0.56641821     0.09700
C1041       C  0.00891807  0.70784860  0.56196805    -0.12500
C1042       C  0.03361749  0.73044738  0.56456516    -0.12500
C1043       C  0.02758735  0.76072709  0.56420916     0.09700
C1044       C  0.49988929  0.77029533  0.56531651    -0.12500
H1045       H  0.45084981  0.75508541  0.55864756     0.13700
H1046       H  0.01469620  0.68490183  0.56248671     0.13700
H1047       H  0.05756232  0.72406862  0.56688569     0.13700
H1048       H  0.49466517  0.79325141  0.56236445     0.13700
C1049       C  0.43808833  0.61135386  0.56810425    -0.15600
C1050       C  0.46089657  0.59692139  0.55707210    -0.30700
H1051       H  0.42248364  0.60076071  0.07440654     0.13500
H1052       H  0.47685574  0.60912726  0.54366199     0.14000
C1053       C  0.36427459  0.68876631  0.55145098    -0.15600
C1054       C  0.35375158  0.71631790  0.55213210    -0.30700
H1055       H  0.34708899  0.66972490  0.54565511     0.13500
H1056       H  0.37029243  0.73565286  0.55894894     0.14000
C1057       C  0.93397661  0.13908720  0.55589590     0.81100
N1058       N  0.95154127  0.16448925  0.05781522    -0.77200
C1059       C  0.94479336  0.19362277  0.05822262     0.83500
N1060       N  0.91401914  0.20011494  0.05587808    -0.77200
C1061       C  0.89677672  0.17535276  0.55470164     0.83600
N1062       N  0.90378642  0.14641858  0.55469615    -0.78900
C1063       C  0.89188944  0.16854241  0.29268536     0.81100
N1064       N  0.89910564  0.14004911  0.29810512    -0.77200
C1065       C  0.92940747  0.13296666  0.29880833     0.83500
N1066       N  0.95208019  0.15430298  0.29385257    -0.77200
C1067       C  0.94498582  0.18245373  0.28790449     0.83600
N1068       N  0.91492368  0.18934584  0.28746374    -0.78900
C1069       C  0.81777690  0.39467449  0.05461218     0.81100
N1070       N  0.84829584  0.40634995  0.05825941    -0.77200
C1071       C  0.85509075  0.43623883  0.05686517     0.83500
N1072       N  0.83118027  0.45441808  0.05256167    -0.77200
C1073       C  0.80057385  0.44319550  0.04960514     0.83600
N1074       N  0.79410830  0.41327974  0.05063424    -0.78900
C1075       C  0.78749196  0.39433080  0.27771366     0.81100
N1076       N  0.77070018  0.41542231  0.28896697    -0.77200
C1077       C  0.78221088  0.44441968  0.29119421     0.83500
N1078       N  0.81090280  0.45187775  0.28302333    -0.77200
C1079       C  0.82792654  0.43093431  0.27210932     0.83600
N1080       N  0.81603133  0.40214116  0.26918763    -0.78900
O1081       O  0.50917241  0.47649114  0.48517829    -0.80000
O1082       O  0.52765295  0.47881431  0.13841681    -0.64700
O1083       O  0.50234505  0.47301073  0.04851315    -1.11300
C1084       C  0.96994358  0.06810227  0.05487282     1.06900
O1085       O  0.98182087  0.50332208  0.14415813    -0.77900
O1086       O  0.93925928  0.49397991  0.09002912    -0.65500
Ni1087     Ni  0.53195795  0.45829567  0.02342752     1.34900
C1088       C  0.92918998  0.49033974  0.06060430     0.85600
O1089       O  0.52284738  0.43382616  0.09535089    -0.78500
O1090       O  0.54757468  0.42953904  0.05358925    -0.88700
C1091       C  0.51169951  0.48968035  0.15798395     0.85200
O1092       O  0.56445683  0.48834889  0.03956876    -0.66900
O1093       O  0.95852453  0.05386955  0.07642779    -0.86200
C1094       C  0.57549714  0.49475975  0.06834414     0.86000
C1095       C  0.53780730  0.41875965  0.07790441     1.07600
H1096       H  0.52348119  0.02936039  0.08367683     0.39400
O1097       O  0.50440107  0.01652537  0.07738550    -1.08900
O1098       O  0.94435062  0.50163378  0.03964243    -0.65500
Ni1099     Ni  0.99628451  0.01478204  0.03765855     1.26300
O1100       O  0.56049109  0.48722119  0.09102487    -0.65800
O1101       O  0.98885392  0.05647353  0.03883259    -0.78100
C1102       C  0.48928765  0.49557508  0.47863040     0.85400
O1103       O  0.98865974  0.00943156  0.49394372    -0.65200
Ni1104     Ni  0.97719661  0.02648115  0.10691490     1.27400
Ni1105     Ni  0.51587926  0.47546724  0.09337457     1.26100
H1106       H  0.97678824  0.45844352  0.03550069     0.39900
O1107       O  0.92703170  0.45209144  0.27201866    -0.80000
O1108       O  0.57320967  0.49765607  0.32243866    -0.64700
O1109       O  0.98449222  0.46179285  0.31466332    -1.11300
C1110       C  0.98334409  0.07159601  0.32311906     1.06900
O1111       O  0.57236142  0.01297152  0.35124922    -0.77900
O1112       O  0.52313171  0.03079844  0.37536268    -0.65500
Ni1113     Ni  0.96478404  0.43203416  0.28370070     1.34900
C1114       C  0.49874660  0.01432360  0.37856120     0.85600
O1115       O  0.54815993  0.44221431  0.32046879    -0.78500
O1116       O  0.50734571  0.41269519  0.29510894    -0.88700
C1117       C  0.58743923  0.00140348  0.33140633     0.85200
O1118       O  0.98033942  0.44735621  0.24746838    -0.66900
O1119       O  0.51418761  0.07187655  0.32997158    -0.86200
C1120       C  0.51220731  0.47046934  0.24984346     0.86000
C1121       C  0.53572265  0.41695613  0.30906336     1.07600
H1122       H  0.52027647  0.02469007  0.28827116     0.39400
O1123       O  0.51865860  0.01557308  0.30820888    -1.08900
O1124       O  0.96871491  0.49905146  0.36046176    -0.65500
Ni1125     Ni  0.98163354  0.00705394  0.31329122     1.26300
O1126       O  0.53071628  0.48160103  0.27401486    -0.65800
O1127       O  0.96787354  0.04675975  0.31372809    -0.78100
C1128       C  0.91160555  0.46569415  0.29018696     0.85400
O1129       O  0.92518898  0.48242824  0.31311505    -0.65200
Ni1130     Ni  0.54270584  0.04173774  0.33980675     1.27400
Ni1131     Ni  0.53153372  0.48052485  0.31945307     1.26100
H1132       H  0.98437402  0.45326587  0.33513067     0.39900
C1133       C  0.56851414  0.33971080  0.07677675     0.81100
N1134       N  0.54409134  0.31819606  0.07466253    -0.77200
C1135       C  0.54963815  0.28869161  0.07578812     0.83500
N1136       N  0.58012560  0.28106105  0.07930451    -0.77200
C1137       C  0.60466072  0.30247167  0.08165410     0.83600
N1138       N  0.59849762  0.33154647  0.07999250    -0.78900
C1139       C  0.55408698  0.33565447  0.31209572     0.81100
N1140       N  0.58555713  0.33201068  0.31797978    -0.77200
C1141       C  0.59529440  0.30496990  0.32678805     0.83500
N1142       N  0.57346841  0.28208816  0.32960210    -0.77200
C1143       C  0.54226445  0.28575353  0.32390046     0.83600
N1144       N  0.53281811  0.31251013  0.31486393    -0.78900
C1145       C  0.69673618  0.07573236  0.05603203     0.81100
N1146       N  0.71772510  0.05500093  0.05778140    -0.77200
C1147       C  0.70889717  0.02578229  0.05953982     0.83500
N1148       N  0.67774242  0.01701934  0.05908460    -0.77200
C1149       C  0.65596868  0.03774160  0.05702745     0.83600
N1150       N  0.66557349  0.06717408  0.05513219    -0.78900
C1151       C  0.70773765  0.08044162  0.34927073     0.81100
N1152       N  0.72696129  0.06114487  0.33864573    -0.77200
C1153       C  0.71732729  0.03164803  0.33452804     0.83500
N1154       N  0.68818019  0.02196324  0.34006082    -0.77200
C1155       C  0.66890652  0.04106633  0.35038022     0.83600
N1156       N  0.67884594  0.07027076  0.35534813    -0.78900
O1157       O  0.75010584  0.31503178  0.08189436    -0.80000
O1158       O  0.70485857  0.18279037  0.07605202    -0.64700
O1159       O  0.75863145  0.25466656  0.09077641    -1.11300
C1160       C  0.76755922  0.24555218  0.48292817     1.06900
O1161       O  0.73982552  0.16313138  0.05066283    -0.77900
O1162       O  0.79181337  0.19416911  0.03579850    -0.65500
Ni1163     Ni  0.74697651  0.28710885  0.11481195     1.34900
C1164       C  0.81104637  0.21604602  0.04690610     0.85600
O1165       O  0.72852638  0.21530209  0.12907930    -0.78500
O1166       O  0.74338126  0.26173335  0.14966490    -0.88700
C1167       C  0.71480379  0.16042282  0.06332323     0.85200
O1168       O  0.70217623  0.28337210  0.10246777    -0.66900
O1169       O  0.76224748  0.21756876  0.48564204    -0.86200
C1170       C  0.68288928  0.26307863  0.08789693     0.86000
C1171       C  0.73521264  0.23421464  0.15234236     1.07600
H1172       H  0.71505534  0.22839143  0.02978473     0.39400
O1173       O  0.73512661  0.22380993  0.04116599    -1.08900
O1174       O  0.80217541  0.24197486  0.05193864    -0.65500
Ni1175     Ni  0.76182193  0.25995277  0.04700572     1.26300
O1176       O  0.69160668  0.23834404  0.07865644    -0.65800
O1177       O  0.77162382  0.26468144  0.50597303    -0.78100
C1178       C  0.77264249  0.31959735  0.06605172     0.85400
O1179       O  0.78565017  0.29803807  0.05498085    -0.65200
Ni1180     Ni  0.74790096  0.19089451  0.01874086     1.27400
Ni1181     Ni  0.73090804  0.21915650  0.08469604     1.26100
H1182       H  0.77873249  0.24941678  0.10147496     0.39900
O1183       O  0.72932392  0.17435911  0.35480960    -0.80000
O1184       O  0.74543520  0.30833173  0.32598884    -0.64700
O1185       O  0.72026080  0.22505412  0.31971874    -1.11300
C1186       C  0.82506153  0.21967543  0.29708664     1.06900
O1187       O  0.76115343  0.30226907  0.27990604    -0.77900
O1188       O  0.77210910  0.25285305  0.24996512    -0.65100
Ni1189     Ni  0.70129975  0.20574531  0.35180091     1.34900
C1190       C  0.75291744  0.22996239  0.24494373     0.85600
O1191       O  0.69080204  0.27712667  0.33090630    -0.78500
O1192       O  0.67129279  0.23520885  0.35099094    -0.88700
C1193       C  0.75511046  0.31927375  0.30188909     0.85200
O1194       O  0.72737747  0.22526938  0.38717322    -0.66900
O1195       O  0.82480499  0.24746272  0.29224181    -0.86200
C1196       C  0.74357123  0.25005752  0.39142523     0.86000
C1197       C  0.66898889  0.26177199  0.34188724     1.07600
H1198       H  0.78667939  0.25749436  0.33726634     0.39400
O1199       O  0.77222492  0.25476066  0.31764096    -1.08900
O1200       O  0.74515325  0.21364271  0.26672612    -0.65500
Ni1201     Ni  0.76028587  0.21330936  0.31165665     1.26300
O1202       O  0.74639931  0.26821360  0.36963566    -0.65800
O1203       O  0.80135546  0.20331165  0.30354216    -0.78100
C1204       C  0.73680030  0.15926073  0.33192722     0.85400
O1205       O  0.74668042  0.17192370  0.30877124    -0.65200
Ni1206     Ni  0.79258332  0.27449764  0.28694728     1.27400
Ni1207     Ni  0.73201060  0.26683600  0.32447742     1.26100
H1208       H  0.70520501  0.22183459  0.30055208     0.39900
C1209       C  0.76645216  0.25558645  0.45129299    -0.12400
C1210       C  0.75887927  0.25722467  0.42314726    -0.14000
C1211       C  0.73485281  0.22446759  0.18401177    -0.12400
C1212       C  0.73998343  0.22296836  0.21242138    -0.14000
C1213       C  0.73417230  0.12652700  0.33268368    -0.15600
C1214       C  0.71641315  0.11261265  0.35202523    -0.30700
H1215       H  0.74420477  0.11379824  0.31527148     0.13500
H1216       H  0.70450806  0.12559108  0.36770509     0.14000
C1217       C  0.69807455  0.13064318  0.06470579    -0.15600
C1218       C  0.70906763  0.10657600  0.05254628    -0.30700
H1219       H  0.67740236  0.12833696  0.07651029     0.13500
H1220       H  0.73059048  0.10917363  0.04207664     0.14000
C1221       C  0.63832583  0.27373934  0.34342821    -0.15600
C1222       C  0.62910757  0.29928121  0.33087082    -0.30700
H1223       H  0.62131147  0.25901128  0.35317522     0.13500
H1224       H  0.64572745  0.31469743  0.32149785     0.14000
C1225       C  0.63830045  0.29538392  0.08658149    -0.15600
C1226       C  0.64859094  0.26825091  0.08187857    -0.30700
H1227       H  0.65564904  0.31405560  0.09380055     0.13500
H1228       H  0.63165870  0.24958326  0.07341898     0.14000
C1229       C  0.62172121  0.00699749  0.33537327    -0.15600
C1230       C  0.63615252  0.03105398  0.35235199    -0.30700
H1231       H  0.63463071  0.99349452  0.32116195     0.13500
H1232       H  0.62265056  0.04573063  0.36461488     0.14000
C1233       C  0.55452462  0.39079223  0.31316470    -0.15600
C1234       C  0.54151818  0.36377934  0.30213556    -0.30700
H1235       H  0.57760434  0.39314518  0.32769418     0.13500
H1236       H  0.51790505  0.36164220  0.28866363     0.14000
C1237       C  0.60801756  0.00769184  0.06847138    -0.15600
C1238       C  0.62177353  0.02810549  0.05130954    -0.30700
H1239       H  0.62388798  0.50234461  0.09532587     0.13500
H1240       H  0.60751029  0.03777428  0.03166801     0.14000
C1241       C  0.54358133  0.38729969  0.08576759    -0.15600
C1242       C  0.56321170  0.37154513  0.07130380    -0.30700
H1243       H  0.53100228  0.37670995  0.10324055     0.13500
H1244       H  0.57732570  0.38280927  0.05546325     0.14000
C1245       C  0.48301276  0.50307876  0.44600751    -0.12400
C1246       C  0.48387819  0.50778699  0.41849240    -0.14000
C1247       C  0.51825695  0.47788886  0.21861613    -0.12400
C1248       C  0.51813843  0.48301299  0.19098124    -0.14000
C1249       C  0.71993632  0.48247997  0.32698939    -0.12500
C1250       C  0.73750727  0.01005691  0.32314238     0.09700
C1251       C  0.76657308  0.01949042  0.31412460    -0.12500
C1252       C  0.77723786  0.49752051  0.30595980    -0.12500
C1253       C  0.76484293  0.46762475  0.30406436     0.09700
C1254       C  0.73609617  0.46028362  0.31483167    -0.12500
H1255       H  0.69774590  0.47612851  0.33500590     0.13700
H1256       H  0.77487138  0.04285612  0.31544664     0.13700
H1257       H  0.80758659  0.00670721  0.29637491     0.13700
H1258       H  0.72604687  0.43743659  0.31387343     0.13700
C1259       C  0.77686611  0.36275828  0.27759487    -0.15600
C1260       C  0.75989428  0.35162492  0.29915380    -0.30700
H1261       H  0.78652690  0.34788777  0.26177798     0.13500
H1262       H  0.75208810  0.36622948  0.31654179     0.14000
C1263       C  0.86105103  0.43839721  0.26890325    -0.15600
C1264       C  0.87714746  0.46219840  0.28489300    -0.30700
H1265       H  0.87338874  0.42200474  0.25755950     0.13500
H1266       H  0.86509144  0.47750387  0.29803080     0.14000
C1267       C  0.78204357  0.49445047  0.04566499    -0.12500
C1268       C  0.77490558  0.46376027  0.04801913     0.09700
C1269       C  0.74364098  0.45351037  0.05072386    -0.12500
C1270       C  0.72043503  0.47367266  0.05205989    -0.12500
C1271       C  0.73363239  0.00450774  0.05970175     0.09700
C1272       C  0.76550775  0.01570076  0.06256851    -0.12500
H1273       H  0.80568182  0.50325836  0.04333571     0.13700
H1274       H  0.73724338  0.42998346  0.05253592     0.13700
H1275       H  0.69675473  0.46517140  0.05459457     0.13700
H1276       H  0.77226806  0.03934374  0.06596199     0.13700
C1277       C  0.81050551  0.36209475  0.05689425    -0.15600
C1278       C  0.78111796  0.35080197  0.05909657    -0.30700
H1279       H  0.82966867  0.34759588  0.05887025     0.13500
H1280       H  0.76252271  0.36579302  0.05904541     0.14000
C1281       C  0.88817707  0.44927036  0.06347073    -0.15600
C1282       C  0.89771486  0.47459867  0.05046207    -0.30700
H1283       H  0.90487181  0.43820964  0.07985435     0.13500
H1284       H  0.88182806  0.48431873  0.03212670     0.14000
C1285       C  0.96176889  0.23358633  0.27279879    -0.12500
C1286       C  0.96996386  0.20602771  0.28451865     0.09700
C1287       C  0.50391615  0.20760747  0.32624209    -0.12500
C1288       C  0.52688654  0.23122377  0.32607743    -0.12500
C1289       C  0.51866117  0.26076569  0.32650534     0.09700
C1290       C  0.98469570  0.25716190  0.27290761    -0.12500
H1291       H  0.93743482  0.23723472  0.26429990     0.13700
H1292       H  0.51076516  0.18504913  0.32487879     0.13700
H1293       H  0.55087518  0.22631318  0.32463023     0.13700
H1294       H  0.97733302  0.27835764  0.26457780     0.13700
C1295       C  0.93865874  0.10278461  0.30622161    -0.15600
C1296       C  0.96860404  0.09976520  0.31907856    -0.30700
H1297       H  0.92173145  0.08355161  0.30055142     0.13500
H1298       H  0.98437707  0.11968124  0.32591484     0.14000
C1299       C  0.85996157  0.17786006  0.29481604    -0.15600
C1300       C  0.85518138  0.20703091  0.29494085    -0.30700
H1301       H  0.84087652  0.16119716  0.29701968     0.13500
H1302       H  0.87467411  0.22331021  0.29283485     0.14000
C1303       C  0.96485573  0.24811130  0.05929471    -0.12500
C1304       C  0.97100823  0.21798275  0.06202977     0.09700
C1305       C  0.50249117  0.21253133  0.06280431    -0.12500
C1306       C  0.52779744  0.23467202  0.06778588    -0.12500
C1307       C  0.52262502  0.26495315  0.07170747     0.09700
C1308       C  0.98965026  0.27074840  0.06271774    -0.12500
H1309       H  0.94084453  0.25425641  0.05426961     0.13700
H1310       H  0.50762453  0.18958579  0.05974056     0.13700
H1311       H  0.55148134  0.22799872  0.06821844     0.13700
H1312       H  0.98388633  0.29359820  0.06016129     0.13700
C1313       C  0.93555381  0.11020939  0.05805204    -0.15600
C1314       C  0.96117867  0.09915695  0.04857308    -0.30700
H1315       H  0.92379255  0.09249285  0.56806808     0.13500
H1316       H  0.97656168  0.11346188  0.03641576     0.14000
C1317       C  0.85634737  0.18408293  0.04977076    -0.15600
C1318       C  0.84551579  0.21126662  0.05336046    -0.30700
H1319       H  0.83933872  0.16496556  0.04360271     0.13500
H1320       H  0.86222206  0.23047554  0.06023183     0.14000
C1321       C  0.92816730  0.14202467  0.05540550     0.81100
N1322       N  0.95763442  0.16118567  0.55751679    -0.77200
C1323       C  0.95143915  0.19045939  0.55801183     0.83500
N1324       N  0.92077276  0.19740313  0.55651559    -0.77200
C1325       C  0.89032179  0.17785480  0.05337658     0.83600
N1326       N  0.89770688  0.14896417  0.05342016    -0.78900
C1327       C  0.90226528  0.17472319  0.77253650     0.81100
N1328       N  0.90723201  0.14622080  0.78085894    -0.77200
C1329       C  0.93688777  0.13686692  0.78288066     0.83500
N1330       N  0.96108076  0.15626025  0.77714362    -0.77200
C1331       C  0.95609927  0.18443381  0.76884244     0.83600
N1332       N  0.92662550  0.19332943  0.76647601    -0.78900
C1333       C  0.80782107  0.40361004  0.57694174     0.81100
N1334       N  0.83886083  0.41225576  0.57660327    -0.77200
C1335       C  0.84817745  0.44157039  0.57298081     0.83500
N1336       N  0.82622153  0.46213061  0.57042827    -0.77200
C1337       C  0.79523917  0.45348109  0.57121742     0.83600
N1338       N  0.78667530  0.42436319  0.57467736    -0.78900
C1339       C  0.79326438  0.39068012  0.77909550     0.81100
N1340       N  0.77661099  0.41113643  0.79188609    -0.77200
C1341       C  0.78863811  0.44006312  0.79620031     0.83500
N1342       N  0.81761093  0.44779422  0.78876933    -0.77200
C1343       C  0.83428060  0.42743000  0.77632069     0.83600
N1344       N  0.82189147  0.39898222  0.77120869    -0.78900
O1345       O  0.51935428  0.48249645  0.98835106    -0.80000
O1346       O  0.51993724  0.46905308  0.63504550    -0.64700
O1347       O  0.49438716  0.46706461  0.54540583    -1.11300
C1348       C  0.97365393  0.06449526  0.55478824     1.06900
O1349       O  0.98591779  0.49483904  0.64679119    -0.77900
O1350       O  0.93975473  0.49001880  0.59563870    -0.65500
Ni1351     Ni  0.52492255  0.45390796  0.52050251     1.34900
C1352       C  0.92814746  0.48561112  0.56665440     0.85600
O1353       O  0.51476172  0.42570029  0.58959719    -0.78500
O1354       O  0.54393973  0.42695239  0.55107355    -0.88700
C1355       C  0.50574420  0.48096255  0.65553929     0.85200
O1356       O  0.55483958  0.48626651  0.53681367    -0.66900
O1357       O  0.96093122  0.05034748  0.57556299    -0.86200
C1358       C  0.56628619  0.49027525  0.56591910     0.86000
C1359       C  0.53304734  0.41344849  0.57332397     1.07600
H1360       H  0.53144765  0.02556691  0.58660379     0.39400
O1361       O  0.51224173  0.01264716  0.58153078    -1.08900
O1362       O  0.94331769  0.49392542  0.54432447    -0.65500
Ni1363     Ni  0.99892853  0.01052037  0.53900645     1.26300
O1364       O  0.55222615  0.47936856  0.58788212    -0.65800
O1365       O  0.99278552  0.05243305  0.53943679    -0.78100
C1366       C  0.49787455  0.49971227  0.98037110     0.85400
O1367       O  0.98582199  0.01444274  0.99223779    -0.65200
Ni1368     Ni  0.97896497  0.02390945  0.60724654     1.27400
Ni1369     Ni  0.50783531  0.46753199  0.59008843     1.26100
H1370       H  0.97770647  0.45068697  0.53901943     0.39900
O1371       O  0.93292616  0.44621280  0.77590332    -0.80000
O1372       O  0.57721631  0.49364257  0.81854163    -0.64700
O1373       O  0.99095302  0.46017898  0.81664009    -1.11300
C1374       C  0.98682633  0.07373669  0.81441094     1.06900
O1375       O  0.57950738  0.02427273  0.85583352    -0.77900
O1376       O  0.52637675  0.04135690  0.87328794    -0.65500
Ni1377     Ni  0.97244875  0.42887551  0.78671434     1.34900
C1378       C  0.50235020  0.02432219  0.87631637     0.85600
O1379       O  0.55297294  0.43773413  0.81813237    -0.78500
O1380       O  0.51135180  0.40853846  0.79390045    -0.88700
C1381       C  0.59617966  0.01015220  0.83941554     0.85200
O1382       O  0.98617527  0.44548141  0.75020587    -0.66900
O1383       O  0.51829933  0.07699176  0.82276040    -0.86200
C1384       C  0.51241483  0.46488250  0.74859688     0.86000
C1385       C  0.54038240  0.41281141  0.80581756     1.07600
H1386       H  0.52943787  0.02748619  0.78749743     0.39400
O1387       O  0.52694093  0.02028132  0.80811977    -1.08900
O1388       O  0.97523876  0.50126702  0.85892685    -0.65500
Ni1389     Ni  0.98399764  0.00838412  0.81103308     1.26300
O1390       O  0.53268893  0.47579418  0.77162961    -0.65800
O1391       O  0.97081814  0.04861327  0.80760453    -0.78100
C1392       C  0.91810023  0.46222349  0.79253925     0.85400
O1393       O  0.93199206  0.48144820  0.81288030    -0.65200
Ni1394     Ni  0.54801310  0.04969449  0.83838137     1.27400
Ni1395     Ni  0.53590277  0.47596569  0.81750877     1.26100
H1396       H  0.98987341  0.45288651  0.83751159     0.39900
C1397       C  0.57490482  0.33982704  0.57383414     0.81100
N1398       N  0.55153724  0.31743191  0.57208328    -0.77200
C1399       C  0.55825548  0.28831642  0.57233384     0.83500
N1400       N  0.58904763  0.28180722  0.57473585    -0.77200
C1401       C  0.61277959  0.30404513  0.57676150     0.83600
N1402       N  0.60537617  0.33290359  0.57598063    -0.78900
C1403       C  0.56291491  0.33474735  0.78506416     0.81100
N1404       N  0.59370998  0.33131334  0.79646312    -0.77200
C1405       C  0.60396484  0.30342919  0.79713324     0.83500
N1406       N  0.58344601  0.27952280  0.78670993    -0.77200
C1407       C  0.55303025  0.28286662  0.77520220     0.83600
N1408       N  0.54302686  0.31058784  0.77436285    -0.78900
C1409       C  0.70124431  0.07379554  0.55518688     0.81100
N1410       N  0.72236521  0.05308333  0.55553458    -0.77200
C1411       C  0.71368948  0.02363316  0.55625145     0.83500
N1412       N  0.68273248  0.01468525  0.55644998    -0.77200
C1413       C  0.66082376  0.03514225  0.55571599     0.83600
N1414       N  0.67013262  0.06482494  0.55466296    -0.78900
C1415       C  0.71782289  0.07913237  0.86701664     0.81100
N1416       N  0.73720610  0.05890993  0.85870481    -0.77200
C1417       C  0.72766941  0.02938451  0.85724379     0.83500
N1418       N  0.69818527  0.02055511  0.86263493    -0.77200
C1419       C  0.67877468  0.04074841  0.87068052     0.83600
N1420       N  0.68876271  0.06997513  0.87315002    -0.78900
O1421       O  0.76610069  0.31584526  0.58938291    -0.80000
O1422       O  0.71017705  0.18207450  0.57532676    -0.64700
O1423       O  0.76641051  0.25290088  0.59340021    -1.11300
C1424       C  0.75952180  0.24359193  0.98017000     1.06900
O1425       O  0.74390166  0.16198905  0.54865212    -0.77900
O1426       O  0.79761664  0.19257936  0.53599776    -0.65500
Ni1427     Ni  0.75481920  0.28543546  0.61787876     1.34900
C1428       C  0.81739781  0.21368014  0.54826839     0.85600
O1429       O  0.73549019  0.21199340  0.62933031    -0.78500
O1430       O  0.74451170  0.25880141  0.65012336    -0.88700
C1431       C  0.71933411  0.15949220  0.56208241     0.85200
O1432       O  0.71133072  0.28532855  0.59899098    -0.66900
O1433       O  0.75537452  0.21572952  0.98432575    -0.86200
C1434       C  0.69136476  0.26455558  0.58629298     0.86000
C1435       C  0.73890293  0.23081007  0.65254808     1.07600
H1436       H  0.72201949  0.22984962  0.53132424     0.39400
O1437       O  0.74178568  0.22418789  0.54241111    -1.08900
O1438       O  0.80923284  0.23955984  0.55436365    -0.65500
Ni1439     Ni  0.77024188  0.25931115  0.55007003     1.26300
O1440       O  0.69898831  0.23833390  0.58076098    -0.65800
O1441       O  0.76271416  0.26368761  0.00234788    -0.78100
C1442       C  0.78921294  0.31797346  0.57381587     0.85400
O1443       O  0.79725692  0.29534528  0.55965021    -0.65200
Ni1444     Ni  0.75358574  0.19141829  0.51863988     1.27400
Ni1445     Ni  0.73753593  0.21786178  0.58548036     1.26100
H1446       H  0.78617713  0.24701303  0.60423943     0.39900
O1447       O  0.72788618  0.17109308  0.85372932    -0.80000
O1448       O  0.75488629  0.30057929  0.82283218    -0.64700
O1449       O  0.72445422  0.21916313  0.81393983    -1.11300
C1450       C  0.82555841  0.19952055  0.79551752     1.06900
O1451       O  0.78543287  0.29850725  0.78527357    -0.77900
O1452       O  0.77358237  0.24754577  0.75099429    -0.65100
Ni1453     Ni  0.70015803  0.20187236  0.84334167     1.34900
C1454       C  0.75778950  0.22270873  0.74481498     0.85600
O1455       O  0.69770659  0.27285544  0.82137486    -0.78500
O1456       O  0.67089215  0.23132800  0.83486950    -0.88700
C1457       C  0.77001580  0.31295042  0.80290447     0.85200
O1458       O  0.71995864  0.22296417  0.88104701    -0.66900
O1459       O  0.82597164  0.22527396  0.78383163    -0.86200
C1460       C  0.73982432  0.24533109  0.88663513     0.86000
C1461       C  0.67245909  0.25834672  0.82682286     1.07600
H1462       H  0.79285294  0.24789444  0.83729655     0.39400
O1463       O  0.77958855  0.24514188  0.81695102    -1.08900
O1464       O  0.75467471  0.20314441  0.76542575    -0.65500
Ni1465     Ni  0.76396617  0.20407280  0.81166342     1.26300
O1466       O  0.74936470  0.26087724  0.86512121    -0.65800
O1467       O  0.80404648  0.18949439  0.81046360    -0.78100
C1468       C  0.73748669  0.15377261  0.83399198     0.85400
O1469       O  0.74702953  0.16375120  0.80946476    -0.65200
Ni1470     Ni  0.80372960  0.26080128  0.78629481     1.27400
Ni1471     Ni  0.73918544  0.25996242  0.81948733     1.26100
H1472       H  0.71150468  0.21650604  0.79341258     0.39900
C1473       C  0.75838302  0.25206627  0.94785030    -0.12400
C1474       C  0.75211355  0.25250883  0.91937284    -0.14000
C1475       C  0.73847970  0.22025971  0.68398321    -0.12400
C1476       C  0.74406727  0.21717098  0.71219932    -0.14000
C1477       C  0.73799649  0.12197288  0.84028695    -0.15600
C1478       C  0.72552755  0.11098043  0.86491240    -0.30700
H1479       H  0.74597454  0.10716005  0.82319062     0.13500
H1480       H  0.71567541  0.12565232  0.88076437     0.14000
C1481       C  0.70235018  0.12953665  0.56377465    -0.15600
C1482       C  0.71338502  0.10508603  0.55207559    -0.30700
H1483       H  0.68162790  0.12745116  0.57551782     0.13500
H1484       H  0.73494590  0.10773780  0.54169931     0.14000
C1485       C  0.64220605  0.27175928  0.82237617    -0.15600
C1486       C  0.63687270  0.29804553  0.80942889    -0.30700
H1487       H  0.62213025  0.25724480  0.82701995     0.13500
H1488       H  0.65612400  0.31383019  0.80546506     0.14000
C1489       C  0.64681296  0.29779811  0.58141411    -0.15600
C1490       C  0.65731429  0.27046627  0.57843006    -0.30700
H1491       H  0.66396431  0.31672271  0.58808528     0.13500
H1492       H  0.64034692  0.25159044  0.57086866     0.14000
C1493       C  0.63039792  0.01195386  0.84829774    -0.15600
C1494       C  0.64528147  0.03228837  0.86998208    -0.30700
H1495       H  0.64373114  0.99908741  0.83388949     0.13500
H1496       H  0.63192804  0.04667430  0.88275793     0.14000
C1497       C  0.55997084  0.38720823  0.80476134    -0.15600
C1498       C  0.54915605  0.36360594  0.78510443    -0.30700
H1499       H  0.58237022  0.38733082  0.82031149     0.13500
H1500       H  0.52667893  0.36417163  0.76978365     0.14000
C1501       C  0.61441332  0.00341241  0.56819030    -0.15600
C1502       C  0.62669091  0.02483320  0.55105705    -0.30700
H1503       H  0.61359911  0.49773507  0.59441592     0.13500
H1504       H  0.61133680  0.03468661  0.53238188     0.14000
C1505       C  0.54176067  0.38253470  0.58008293    -0.15600
C1506       C  0.56748401  0.37152376  0.57083678    -0.30700
H1507       H  0.52632943  0.36833878  0.59230001     0.13500
H1508       H  0.58398968  0.38638703  0.56060763     0.14000
C1509       C  0.49180791  0.50590426  0.94726884    -0.12400
C1510       C  0.49213664  0.50895436  0.91930909    -0.14000
C1511       C  0.51645442  0.47115789  0.71656598    -0.12400
C1512       C  0.51417620  0.47502043  0.68848838    -0.14000
C1513       C  0.72465613  0.47877006  0.82894787    -0.12500
C1514       C  0.74767635  0.00718513  0.84674100     0.09700
C1515       C  0.77696406  0.01614108  0.83789833    -0.12500
C1516       C  0.78513242  0.49257400  0.81483239    -0.12500
C1517       C  0.77129674  0.46315003  0.80966914     0.09700
C1518       C  0.74094728  0.45643351  0.81707489    -0.12500
H1519       H  0.70113331  0.47287527  0.83410580     0.13700
H1520       H  0.78601663  0.03931773  0.83987014     0.13700
H1521       H  0.81677900  0.00303999  0.81830818     0.13700
H1522       H  0.72965241  0.43403275  0.81344114     0.13700
C1523       C  0.78325981  0.35888082  0.77712394    -0.15600
C1524       C  0.77026875  0.34545834  0.80019515    -0.30700
H1525       H  0.79211834  0.34558144  0.75931437     0.13500
H1526       H  0.76229024  0.35859579  0.81869649     0.14000
C1527       C  0.86730165  0.43477422  0.77288388    -0.15600
C1528       C  0.88368926  0.45854248  0.78851891    -0.30700
H1529       H  0.87925752  0.41844125  0.76099409     0.13500
H1530       H  0.87195746  0.47405236  0.80174647     0.14000
C1531       C  0.77797465  0.50587812  0.57474424    -0.12500
C1532       C  0.77050783  0.47500342  0.57021278     0.09700
C1533       C  0.73851080  0.46411050  0.56623812    -0.12500
C1534       C  0.71469500  0.48329827  0.56711330    -0.12500
C1535       C  0.73804179  0.00203690  0.55481987     0.09700
C1536       C  0.76947465  0.01262832  0.55344113    -0.12500
H1537       H  0.80230319  0.51503153  0.57808621     0.13700
H1538       H  0.73166920  0.44050806  0.56251079     0.13700
H1539       H  0.69045971  0.47388274  0.56385687     0.13700
H1540       H  0.77627108  0.03626731  0.55353904     0.13700
C1541       C  0.79584316  0.37272455  0.58237680    -0.15600
C1542       C  0.80599306  0.34778266  0.57072884    -0.30700
H1543       H  0.77497237  0.37074215  0.59392453     0.13500
H1544       H  0.82578856  0.34937975  0.55763427     0.14000
C1545       C  0.88246622  0.45148968  0.57662392    -0.15600
C1546       C  0.89488144  0.47232957  0.55883074    -0.30700
H1547       H  0.89800641  0.44155235  0.59508406     0.13500
H1548       H  0.88001854  0.48059389  0.53870561     0.14000
C1549       C  0.97653021  0.23386709  0.75255678    -0.12500
C1550       C  0.98264330  0.20655658  0.76621688     0.09700
C1551       C  0.51452160  0.20440354  0.77448726    -0.12500
C1552       C  0.53793518  0.22802189  0.77660988    -0.12500
C1553       C  0.53016849  0.25655521  0.76722887     0.09700
C1554       C  0.99997264  0.25726482  0.75545152    -0.12500
H1555       H  0.95314812  0.23766884  0.74089187     0.13700
H1556       H  0.52076708  0.18316776  0.78369152     0.13700
H1557       H  0.56167095  0.22432916  0.78733228     0.13700
H1558       H  0.99405279  0.27846960  0.74592760     0.13700
C1559       C  0.94394948  0.10643100  0.79278371    -0.15600
C1560       C  0.97341704  0.10226308  0.80660472    -0.30700
H1561       H  0.92584138  0.08801944  0.78845876     0.13500
H1562       H  0.99022855  0.12169447  0.81184989     0.14000
C1563       C  0.87185322  0.18763103  0.77197737    -0.15600
C1564       C  0.85145228  0.18050731  0.79189635    -0.30700
H1565       H  0.86849839  0.20702833  0.75768877     0.13500
H1566       H  0.85475126  0.16155905  0.80684492     0.14000
C1567       C  0.97304077  0.24479684  0.56154696    -0.12500
C1568       C  0.97826620  0.21435450  0.56067141     0.09700
C1569       C  0.51306506  0.21121048  0.56328122    -0.12500
C1570       C  0.53789747  0.23381212  0.56694324    -0.12500
C1571       C  0.53197088  0.26401211  0.56931472     0.09700
C1572       C  0.99837388  0.26692633  0.56434774    -0.12500
H1573       H  0.94931292  0.25161184  0.56010909     0.13700
H1574       H  0.51868800  0.18829715  0.56137674     0.13700
H1575       H  0.56177228  0.22756119  0.56767395     0.13700
H1576       H  0.99320263  0.29004052  0.56491590     0.13700
C1577       C  0.94065800  0.10719714  0.55812324    -0.15600
C1578       C  0.96598529  0.09575582  0.54858973    -0.30700
H1579       H  0.91908911  0.09529711  0.06827130     0.13500
H1580       H  0.98189169  0.10982488  0.53677598     0.14000
C1581       C  0.86271891  0.18153606  0.55113178    -0.15600
C1582       C  0.85180811  0.20856145  0.55492144    -0.30700
H1583       H  0.84567500  0.16247902  0.54472441     0.13500
H1584       H  0.86855719  0.22765670  0.56220649     0.14000
C1585       C  0.93329110  0.63950671  0.55971129     0.81100
N1586       N  0.95162172  0.66519425  0.05610793    -0.77200
C1587       C  0.94549136  0.69454984  0.05548351     0.83500
N1588       N  0.91481754  0.70162540  0.05268236    -0.77200
C1589       C  0.89649539  0.67613873  0.55401838     0.83600
N1590       N  0.90315427  0.64726878  0.55699409    -0.78900
C1591       C  0.90675584  0.67351325  0.32312925     0.81100
N1592       N  0.91487926  0.64569403  0.33009052    -0.77200
C1593       C  0.94568474  0.64134884  0.33972398     0.83500
N1594       N  0.96802232  0.66450417  0.34232354    -0.77200
C1595       C  0.96005536  0.69218757  0.33528443     0.83600
N1596       N  0.92941961  0.69653355  0.32577104    -0.78900
C1597       C  0.82418858  0.89687757  0.05721744     0.81100
N1598       N  0.85478627  0.90814167  0.05932221    -0.77200
C1599       C  0.86199024  0.93815000  0.05896198     0.83500
N1600       N  0.83841775  0.95679884  0.05737204    -0.77200
C1601       C  0.80783909  0.94577246  0.05594671     0.83600
N1602       N  0.80109448  0.91590590  0.05576364    -0.78900
C1603       C  0.80446315  0.89661464  0.27850984     0.81100
N1604       N  0.78571086  0.91673551  0.28824992    -0.77200
C1605       C  0.79520281  0.94626063  0.28997658     0.83500
N1606       N  0.82393588  0.95536085  0.28272013    -0.77200
C1607       C  0.84281929  0.93535815  0.27309619     0.83600
N1608       N  0.83290117  0.90601594  0.27073926    -0.78900
O1609       O  0.52458416  0.98094992  0.47929121    -0.80000
O1610       O  0.52252907  0.97514983  0.12370997    -0.64700
O1611       O  0.50194884  0.97551799  0.03342662    -1.11300
C1612       C  0.96513088  0.56706320  0.05542248     1.06900
O1613       O  0.99251546  0.00348670  0.14235454    -0.77900
O1614       O  0.94840570  0.99385945  0.08909570    -0.65500
Ni1615     Ni  0.53257245  0.96277585  0.00854483     1.34900
C1616       C  0.93714505  0.99093734  0.05987316     0.85600
O1617       O  0.51983328  0.93332513  0.07762585    -0.78500
O1618       O  0.54562428  0.93088545  0.03621720    -0.88700
C1619       C  0.50817544  0.98739707  0.14387685     0.85200
O1620       O  0.56563058  0.99049718  0.02885004    -0.66900
O1621       O  0.95200829  0.55356033  0.07641458    -0.86200
C1622       C  0.57514159  0.99455839  0.05830538     0.86000
C1623       C  0.53555682  0.91921339  0.06004423     1.07600
H1624       H  0.52561040  0.52951293  0.09513372     0.39400
O1625       O  0.50653407  0.51641610  0.09005199    -1.08900
O1626       O  0.95157844  0.00252488  0.03846133    -0.65500
Ni1627     Ni  0.98941683  0.51229335  0.04004515     1.26300
O1628       O  0.55817660  0.98639945  0.07920372    -0.65800
O1629       O  0.98387082  0.55426960  0.04018129    -0.78100
C1630       C  0.50233295  0.99756284  0.47168145     0.85400
O1631       O  0.97626348  0.50324109  0.49688964    -0.65200
Ni1632     Ni  0.96851046  0.52618665  0.10802217     1.27400
Ni1633     Ni  0.51311727  0.97504810  0.07838716     1.26100
H1634       H  0.98563497  0.96080453  0.03308917     0.39900
O1635       O  0.94055131  0.95949019  0.27121142    -0.80000
O1636       O  0.57301523  0.98583091  0.30779051    -0.64700
O1637       O  0.99744062  0.96840239  0.31296804    -1.11300
C1638       C  0.96327849  0.56170328  0.32864865     1.06900
O1639       O  0.57062880  0.52916011  0.36260350    -0.77900
O1640       O  0.51559469  0.53050621  0.38567757    -0.65500
Ni1641     Ni  0.97746604  0.93821983  0.28299371     1.34900
C1642       C  0.49083185  0.51391299  0.38735159     0.85600
O1643       O  0.53718892  0.93368977  0.30185637    -0.78500
O1644       O  0.48974526  0.91134032  0.28027395    -0.88700
C1645       C  0.58631685  0.51491827  0.34512540     0.85200
O1646       O  0.99378470  0.95255100  0.24669630    -0.66900
O1647       O  0.49577165  0.57042920  0.34208518    -0.86200
C1648       C  0.50713662  0.96908902  0.23568430     0.86000
C1649       C  0.51878158  0.91065499  0.29175834     1.07600
H1650       H  0.51558963  0.52715114  0.29890463     0.39400
O1651       O  0.51406840  0.51830625  0.31899907    -1.08900
O1652       O  0.98361713  0.00560816  0.35870532    -0.65500
Ni1653     Ni  0.96692666  0.49946749  0.31481473     1.26300
O1654       O  0.52713419  0.97808508  0.25967007    -0.65800
O1655       O  0.95079981  0.53769414  0.31426095    -0.78100
C1656       C  0.92536909  0.97347273  0.28943244     0.85400
O1657       O  0.93915101  0.99151478  0.31125334    -0.65200
Ni1658     Ni  0.53192564  0.54795430  0.35092799     1.27400
Ni1659     Ni  0.52904211  0.97497863  0.30501851     1.26100
H1660       H  0.99684149  0.96007563  0.33346670     0.39900
C1661       C  0.57145122  0.84222856  0.06404291     0.81100
N1662       N  0.54745441  0.82040577  0.06289712    -0.77200
C1663       C  0.55362633  0.79132140  0.06702280     0.83500
N1664       N  0.58426605  0.78440765  0.07271288    -0.77200
C1665       C  0.60843453  0.80603125  0.07411199     0.83600
N1666       N  0.60175992  0.83475249  0.06945607    -0.78900
C1667       C  0.56986026  0.84492256  0.30544345     0.81100
N1668       N  0.60079658  0.83916707  0.30994157    -0.77200
C1669       C  0.60861712  0.81084664  0.31497364     0.83500
N1670       N  0.58552027  0.78869722  0.31529081    -0.77200
C1671       C  0.55481759  0.79406510  0.31078669     0.83600
N1672       N  0.54707834  0.82227096  0.30586746    -0.78900
C1673       C  0.69314379  0.57726627  0.05168156     0.81100
N1674       N  0.71335543  0.55593602  0.05030350    -0.77200
C1675       C  0.70438700  0.52674152  0.05282448     0.83500
N1676       N  0.67399090  0.51870213  0.05649619    -0.77200
C1677       C  0.65292636  0.53978580  0.05745532     0.83600
N1678       N  0.66252544  0.56917925  0.05467085    -0.78900
C1679       C  0.70973600  0.58631008  0.35321277     0.81100
N1680       N  0.72626513  0.56489953  0.34219363    -0.77200
C1681       C  0.71489720  0.53588055  0.34106507     0.83500
N1682       N  0.68655432  0.52866609  0.35014643    -0.77200
C1683       C  0.66979623  0.54992876  0.36095158     0.83600
N1684       N  0.68158273  0.57875557  0.36272037    -0.78900
O1685       O  0.75267457  0.81729674  0.07931716    -0.80000
O1686       O  0.70680979  0.68513996  0.07391682    -0.64700
O1687       O  0.76132124  0.75694939  0.08765790    -1.11300
C1688       C  0.76832173  0.74692851  0.47822119     1.06900
O1689       O  0.73839148  0.66457941  0.04479976    -0.77900
O1690       O  0.79184791  0.69627756  0.03274674    -0.65500
Ni1691     Ni  0.75050673  0.78936967  0.11233679     1.34900
C1692       C  0.81149614  0.71815315  0.04317681     0.85600
O1693       O  0.73325527  0.71728306  0.12659899    -0.78500
O1694       O  0.74840647  0.76371814  0.14721990    -0.88700
C1695       C  0.71484130  0.66248624  0.05979284     0.85200
O1696       O  0.70556353  0.78598292  0.10098881    -0.66900
O1697       O  0.76282468  0.71887122  0.48020752    -0.86200
C1698       C  0.68611132  0.76590970  0.08629070     0.86000
C1699       C  0.74133520  0.73597039  0.14992154     1.07600
H1700       H  0.71574692  0.73149935  0.02745315     0.39400
O1701       O  0.73603399  0.72669716  0.03813287    -1.08900
O1702       O  0.80312350  0.74437874  0.04745320    -0.65500
Ni1703     Ni  0.76321642  0.76285081  0.04392303     1.26300
O1704       O  0.69445510  0.74094868  0.07733539    -0.65800
O1705       O  0.77229633  0.76552033  0.50177645    -0.78100
C1706       C  0.77585180  0.82215590  0.06442149     0.85400
O1707       O  0.78794202  0.80063611  0.05213469    -0.65200
Ni1708     Ni  0.74806311  0.69398113  0.01463186     1.27400
Ni1709     Ni  0.73348846  0.72148170  0.08193942     1.26100
H1710       H  0.78162788  0.75162433  0.09775062     0.39900
O1711       O  0.73858894  0.67797082  0.35186933    -0.80000
O1712       O  0.75796832  0.80886944  0.32065468    -0.64700
O1713       O  0.73088888  0.72613525  0.31388705    -1.11300
C1714       C  0.83658275  0.71742191  0.29760331     1.06900
O1715       O  0.77781839  0.80365617  0.27645718    -0.77900
O1716       O  0.78474289  0.75260143  0.24704745    -0.65100
Ni1717     Ni  0.70930805  0.70774654  0.34466740     1.34900
C1718       C  0.76604095  0.72936426  0.24197178     0.85600
O1719       O  0.70207939  0.77865942  0.32275450    -0.78500
O1720       O  0.67889606  0.73662855  0.33955404    -0.88700
C1721       C  0.77013840  0.82015867  0.29805070     0.85200
O1722       O  0.73138444  0.72848273  0.38134747    -0.66900
O1723       O  0.83666657  0.74443856  0.28967827    -0.86200
C1724       C  0.74914928  0.75229643  0.38613295     0.86000
C1725       C  0.67857627  0.76355123  0.33115176     1.07600
H1726       H  0.79765752  0.75773792  0.33431252     0.39400
O1727       O  0.78401564  0.75472963  0.31420402    -1.08900
O1728       O  0.75894779  0.71247710  0.26360386    -0.65500
Ni1729     Ni  0.77124650  0.71321696  0.30908092     1.26300
O1730       O  0.75560325  0.76913406  0.36423364    -0.65800
O1731       O  0.81261482  0.70212000  0.30480400    -0.78100
C1732       C  0.74518145  0.66097632  0.33014886     0.85400
O1733       O  0.75665401  0.67186768  0.30692152    -0.65200
Ni1734     Ni  0.80644743  0.77331109  0.28403591     1.27400
Ni1735     Ni  0.74354586  0.76762600  0.31866687     1.26100
H1736       H  0.71695855  0.72291892  0.29397082     0.39900
C1737       C  0.76809050  0.75764399  0.44686288    -0.12400
C1738       C  0.76223915  0.75960141  0.41854664    -0.14000
C1739       C  0.74435522  0.72552898  0.18157663    -0.12400
C1740       C  0.75204378  0.72307336  0.20962924    -0.14000
C1741       C  0.73928149  0.62859974  0.33250357    -0.15600
C1742       C  0.72055233  0.61786046  0.35281883    -0.30700
H1743       H  0.74810125  0.61374130  0.31605462     0.13500
H1744       H  0.71017811  0.63306269  0.36769501     0.14000
C1745       C  0.69754628  0.63280037  0.06221929    -0.15600
C1746       C  0.70555366  0.60831948  0.04758726    -0.30700
H1747       H  0.67890892  0.63090559  0.07678001     0.13500
H1748       H  0.72509588  0.61059978  0.03417304     0.14000
C1749       C  0.64841044  0.77658225  0.33073219    -0.15600
C1750       C  0.64171977  0.80330021  0.31950744    -0.30700
H1751       H  0.62991744  0.76212281  0.33857796     0.13500
H1752       H  0.65989075  0.81856386  0.31232661     0.14000
C1753       C  0.64206702  0.79920709  0.08123548    -0.15600
C1754       C  0.65207379  0.77159609  0.07931852    -0.30700
H1755       H  0.65943946  0.81803952  0.08747573     0.13500
H1756       H  0.63503025  0.75281627  0.07159198     0.14000
C1757       C  0.62075812  0.51826096  0.35072128    -0.15600
C1758       C  0.63693642  0.54264514  0.36534824    -0.30700
H1759       H  0.63273236  0.50234429  0.33826713     0.13500
H1760       H  0.62470370  0.55955968  0.37601190     0.14000
C1761       C  0.53041657  0.88089836  0.29387579    -0.15600
C1762       C  0.56087830  0.87569898  0.30136055    -0.30700
H1763       H  0.51256049  0.86224806  0.28925386     0.13500
H1764       H  0.57910886  0.89404646  0.30503472     0.14000
C1765       C  0.60803419  0.50968836  0.07538970    -0.15600
C1766       C  0.61888638  0.53024246  0.05633890    -0.30700
H1767       H  0.62146197  0.99971090  0.08966034     0.13500
H1768       H  0.60241963  0.53913217  0.03788951     0.14000
C1769       C  0.54176045  0.88773182  0.06742291    -0.15600
C1770       C  0.56529705  0.87375864  0.05726227    -0.30700
H1771       H  0.52677814  0.87584686  0.08205794     0.13500
H1772       H  0.58180533  0.88634536  0.04476654     0.14000
C1773       C  0.49528363  0.00411315  0.43861351    -0.12400
C1774       C  0.49400233  0.00834439  0.41060376    -0.14000
C1775       C  0.51379482  0.97522683  0.20432753    -0.12400
C1776       C  0.51423266  0.98002497  0.17669033    -0.14000
C1777       C  0.72748674  0.97951061  0.32099216    -0.12500
C1778       C  0.73225892  0.51241192  0.32865419     0.09700
C1779       C  0.76110052  0.51967985  0.31808766    -0.12500
C1780       C  0.78524901  0.99875535  0.30314676    -0.12500
C1781       C  0.77521072  0.96821530  0.30104997     0.09700
C1782       C  0.74612144  0.95882920  0.31005950    -0.12500
H1783       H  0.70520899  0.97143456  0.32782326     0.13700
H1784       H  0.77122895  0.54249954  0.31907174     0.13700
H1785       H  0.79943307  0.50393226  0.29798435     0.13700
H1786       H  0.73772643  0.93548581  0.30880550     0.13700
C1787       C  0.79538689  0.86457494  0.27805675    -0.15600
C1788       C  0.77531041  0.85265464  0.29642894    -0.30700
H1789       H  0.80772147  0.85017675  0.26417133     0.13500
H1790       H  0.76456297  0.86677711  0.31206287     0.14000
C1791       C  0.87546307  0.94457207  0.26945481    -0.15600
C1792       C  0.89089310  0.96869206  0.28542998    -0.30700
H1793       H  0.88823912  0.92905412  0.25741341     0.13500
H1794       H  0.87851399  0.98311353  0.29924797     0.14000
C1795       C  0.78934926  0.99675340  0.06092724    -0.12500
C1796       C  0.78217209  0.96593739  0.05656986     0.09700
C1797       C  0.75034644  0.95455267  0.05395028    -0.12500
C1798       C  0.72630642  0.97365022  0.05547440    -0.12500
C1799       C  0.72799622  0.50448761  0.05061485     0.09700
C1800       C  0.75904562  0.51442957  0.04695474    -0.12500
H1801       H  0.81348063  0.00634515  0.06328897     0.13700
H1802       H  0.74394885  0.93084761  0.05064726     0.13700
H1803       H  0.70207670  0.96431659  0.05298215     0.13700
H1804       H  0.76592689  0.53789788  0.04544888     0.13700
C1805       C  0.81585230  0.86421205  0.05777713    -0.15600
C1806       C  0.78616590  0.85363751  0.06019368    -0.30700
H1807       H  0.83421539  0.84900742  0.05767875     0.13500
H1808       H  0.76848582  0.86928440  0.06204891     0.14000
C1809       C  0.89544482  0.95054676  0.06378817    -0.15600
C1810       C  0.90501423  0.97592593  0.05078293    -0.30700
H1811       H  0.91257646  0.93877914  0.07889507     0.13500
H1812       H  0.88858368  0.98647393  0.03365027     0.14000
C1813       C  0.97614025  0.74649015  0.33622289    -0.12500
C1814       C  0.98451296  0.71704246  0.33632282     0.09700
C1815       C  0.51671626  0.71807474  0.32430448    -0.12500
C1816       C  0.53937257  0.74153544  0.32263805    -0.12500
C1817       C  0.53046241  0.76931201  0.31198416     0.09700
C1818       C  0.99863353  0.76993387  0.33407073    -0.12500
H1819       H  0.95205457  0.75140406  0.33718694     0.13700
H1820       H  0.52449199  0.69709101  0.33286638     0.13700
H1821       H  0.56391648  0.73790075  0.33002409     0.13700
H1822       H  0.99128346  0.79237810  0.33343942     0.13700
C1823       C  0.95621324  0.61197557  0.34619211    -0.15600
C1824       C  0.94472473  0.58775588  0.32804967    -0.30700
H1825       H  0.97780745  0.61148136  0.36290473     0.13500
H1826       H  0.92362193  0.58821431  0.31065343     0.14000
C1827       C  0.87358057  0.67944636  0.31410414    -0.15600
C1828       C  0.86694620  0.70463312  0.29955411    -0.30700
H1829       H  0.85514848  0.66472249  0.32162849     0.13500
H1830       H  0.88583257  0.71858565  0.29169193     0.14000
C1831       C  0.96703567  0.74901372  0.05961352    -0.12500
C1832       C  0.97226659  0.71852084  0.05840696     0.09700
C1833       C  0.50862990  0.71457162  0.06635395    -0.12500
C1834       C  0.53335618  0.73718979  0.06883745    -0.12500
C1835       C  0.52721027  0.76719439  0.06459559     0.09700
C1836       C  0.99235171  0.77121616  0.06221714    -0.12500
H1837       H  0.94332240  0.75579846  0.05849948     0.13700
H1838       H  0.51444596  0.69184422  0.06989830     0.13700
H1839       H  0.55735915  0.73107686  0.07411945     0.13700
H1840       H  0.98727724  0.79435535  0.06296632     0.13700
C1841       C  0.93393618  0.61129634  0.05823688    -0.15600
C1842       C  0.95847495  0.59852963  0.04861090    -0.30700
H1843       H  0.92400223  0.59563786  0.57961183     0.13500
H1844       H  0.97434941  0.61157939  0.03581181     0.14000
C1845       C  0.85676184  0.68614639  0.04612878    -0.15600
C1846       C  0.84591935  0.71322143  0.04990258    -0.30700
H1847       H  0.83973536  0.66713237  0.03940272     0.13500
H1848       H  0.86263724  0.73230500  0.05733475     0.14000
C1849       C  0.92774103  0.64321387  0.05426582     0.81100
N1850       N  0.95723703  0.66126261  0.55984745    -0.77200
C1851       C  0.95103777  0.69055198  0.55733794     0.83500
N1852       N  0.92051018  0.69769284  0.55435093    -0.77200
C1853       C  0.89070006  0.67973458  0.05057556     0.83600
N1854       N  0.89753526  0.65077662  0.05164421    -0.78900
C1855       C  0.90518158  0.67092341  0.81987356     0.81100
N1856       N  0.91390969  0.64314599  0.82683544    -0.77200
C1857       C  0.94516372  0.63896546  0.83449534     0.83500
N1858       N  0.96720494  0.66224185  0.83517830    -0.77200
C1859       C  0.95861576  0.68971441  0.82787164     0.83600
N1860       N  0.92768865  0.69377792  0.82038453    -0.78900
C1861       C  0.82782554  0.89273401  0.55655689     0.81100
N1862       N  0.85842957  0.90405554  0.55947419    -0.77200
C1863       C  0.86549656  0.93398202  0.55865298     0.83500
N1864       N  0.84182644  0.95249335  0.55552220    -0.77200
C1865       C  0.81118929  0.94152686  0.55312474     0.83600
N1866       N  0.80446828  0.91163833  0.55364417    -0.78900
C1867       C  0.80555229  0.89527046  0.78631173     0.81100
N1868       N  0.78928064  0.91474039  0.80088097    -0.77200
C1869       C  0.80081698  0.94360058  0.80644928     0.83500
N1870       N  0.82889969  0.95266570  0.79779989    -0.77200
C1871       C  0.84533679  0.93340621  0.78338167     0.83600
N1872       N  0.83358142  0.90469004  0.77755162    -0.78900
O1873       O  0.52243278  0.99079611  0.97605781    -0.80000
O1874       O  0.53312427  0.97382635  0.62910046    -0.64700
O1875       O  0.50764771  0.96982776  0.53925145    -1.11300
C1876       C  0.96650452  0.56122950  0.55956430     1.06900
O1877       O  0.99400564  0.00206103  0.64357859    -0.77900
O1878       O  0.95030045  0.99101796  0.58988137    -0.65500
Ni1879     Ni  0.53705563  0.95553226  0.51368109     1.34900
C1880       C  0.93962283  0.98752938  0.56053959     0.85600
O1881       O  0.52744323  0.92954065  0.58503268    -0.78500
O1882       O  0.55205990  0.92565547  0.54304276    -0.88700
C1883       C  0.51887214  0.98616283  0.64925619     0.85200
O1884       O  0.57046780  0.98457575  0.53079668    -0.66900
O1885       O  0.95628080  0.54942318  0.58321880    -0.86200
C1886       C  0.58142874  0.98978033  0.55984297     0.86000
C1887       C  0.54248809  0.91470565  0.56742827     1.07600
H1888       H  0.51897546  0.52148855  0.59453506     0.39400
O1889       O  0.49959152  0.50891407  0.58894144    -1.08900
O1890       O  0.95412536  0.99922414  0.53930392    -0.65500
Ni1891     Ni  0.98813072  0.50498913  0.54205557     1.26300
O1892       O  0.56579119  0.98226137  0.58201562    -0.65800
O1893       O  0.98186004  0.54687108  0.54184168    -0.78100
C1894       C  0.49986923  0.00696113  0.96808322     0.85400
O1895       O  0.97994543  0.51107162  0.99466700    -0.65200
Ni1896     Ni  0.97236980  0.51988385  0.61251763     1.27400
Ni1897     Ni  0.52107574  0.97135094  0.58404095     1.26100
H1898       H  0.98685840  0.95661844  0.53402418     0.39900
O1899       O  0.94081984  0.95678256  0.77449113    -0.80000
O1900       O  0.58362815  0.99469872  0.81511347    -0.64700
O1901       O  0.99899283  0.96911728  0.81369350    -1.11300
C1902       C  0.96806750  0.56054129  0.82283946     1.06900
O1903       O  0.57442993  0.52413005  0.85945559    -0.77900
O1904       O  0.52085066  0.53102955  0.88339493    -0.65500
Ni1905     Ni  0.97987235  0.93850636  0.78341271     1.34900
C1906       C  0.49772205  0.51312992  0.88725869     0.85600
O1907       O  0.55329238  0.94185002  0.81545328    -0.78500
O1908       O  0.51470769  0.91783184  0.78134287    -0.88700
C1909       C  0.59029134  0.51073060  0.84145258     0.85200
O1910       O  0.99311544  0.95646434  0.74761097    -0.66900
O1911       O  0.50167303  0.56780756  0.83611363    -0.86200
C1912       C  0.51977915  0.97286955  0.74169782     0.86000
C1913       C  0.54163050  0.91896593  0.79871173     1.07600
H1914       H  0.51819106  0.52165466  0.79639104     0.39400
O1915       O  0.51806092  0.51356206  0.81706367    -1.08900
O1916       O  0.98558489  0.00997452  0.85668699    -0.65500
Ni1917     Ni  0.97359617  0.49799488  0.81323302     1.26300
O1918       O  0.54097525  0.97871536  0.76574351    -0.65800
O1919       O  0.95694251  0.53599625  0.80883030    -0.78100
C1920       C  0.92685976  0.97342046  0.79138361     0.85400
O1921       O  0.94131885  0.99401216  0.80995084    -0.65200
Ni1922     Ni  0.53707940  0.54451032  0.84675603     1.27400
Ni1923     Ni  0.54050011  0.98117118  0.81130678     1.26100
H1924       H  0.99728083  0.96161988  0.83436907     0.39900
C1925       C  0.57683173  0.83703946  0.56951381     0.81100
N1926       N  0.55261844  0.81568723  0.56962054    -0.77200
C1927       C  0.55823366  0.78630338  0.57211964     0.83500
N1928       N  0.58859967  0.77856780  0.57482535    -0.77200
C1929       C  0.61299455  0.79975050  0.57488847     0.83600
N1930       N  0.60679617  0.82878405  0.57196344    -0.78900
C1931       C  0.56209858  0.83891771  0.78525950     0.81100
N1932       N  0.59313055  0.83540822  0.79605624    -0.77200
C1933       C  0.60261209  0.80731299  0.79981284     0.83500
N1934       N  0.58109269  0.78356664  0.79297059    -0.77200
C1935       C  0.55052505  0.78696307  0.78233529     0.83600
N1936       N  0.54123740  0.81471436  0.77841152    -0.78900
C1937       C  0.67988651  0.58328597  0.56944568     0.81100
N1938       N  0.70308585  0.56428831  0.57222463    -0.77200
C1939       C  0.69626644  0.53441011  0.57160401     0.83500
N1940       N  0.66553609  0.52342778  0.56846694    -0.77200
C1941       C  0.64191415  0.54204672  0.56562312     0.83600
N1942       N  0.64917409  0.57204941  0.56568262    -0.78900
C1943       C  0.71452482  0.58251030  0.85688937     0.81100
N1944       N  0.73206181  0.56116372  0.84713447    -0.77200
C1945       C  0.72049342  0.53204113  0.84503616     0.83500
N1946       N  0.69115045  0.52485355  0.85169262    -0.77200
C1947       C  0.67352105  0.54602085  0.86107225     0.83600
N1948       N  0.68537235  0.57478788  0.86394308    -0.78900
O1949       O  0.75801864  0.81283394  0.58250196    -0.80000
O1950       O  0.71510464  0.67860840  0.57085676    -0.64700
O1951       O  0.76620638  0.75213003  0.58879998    -1.11300
C1952       C  0.76016142  0.74761440  0.97705516     1.06900
O1953       O  0.75050214  0.66193087  0.54359258    -0.77900
O1954       O  0.80032025  0.69523701  0.52959715    -0.65500
Ni1955     Ni  0.75363741  0.78339015  0.61363972     1.34900
C1956       C  0.81912539  0.71609337  0.54370164     0.85600
O1957       O  0.73764538  0.71004875  0.62514134    -0.78500
O1958       O  0.74910450  0.75648845  0.64697611    -0.88700
C1959       C  0.72747884  0.65723821  0.55878269     0.85200
O1960       O  0.70934114  0.77959486  0.59893112    -0.66900
O1961       O  0.75659283  0.71967929  0.98106597    -0.86200
C1962       C  0.69046539  0.75918494  0.58405966     0.86000
C1963       C  0.74311645  0.72850175  0.64890894     1.07600
H1964       H  0.72343285  0.72814256  0.52682296     0.39400
O1965       O  0.74353843  0.72316137  0.53777379    -1.08900
O1966       O  0.81025065  0.74144168  0.55085141    -0.65500
Ni1967     Ni  0.77018308  0.75943541  0.54575093     1.26300
O1968       O  0.69942430  0.73419648  0.57573842    -0.65800
O1969       O  0.76294730  0.76746314  0.99935364    -0.78100
C1970       C  0.78153219  0.81816465  0.56817856     0.85400
O1971       O  0.79432732  0.79708937  0.55600767    -0.65200
Ni1972     Ni  0.75649150  0.69183886  0.51315001     1.27400
Ni1973     Ni  0.73948783  0.71603127  0.58093338     1.26100
H1974       H  0.78631749  0.74703159  0.59963055     0.39900
O1975       O  0.73184072  0.67545690  0.85071093    -0.80000
O1976       O  0.75336197  0.80658036  0.81913878    -0.64700
O1977       O  0.72702361  0.72373819  0.81115826    -1.11300
C1978       C  0.83351585  0.71558950  0.79800006     1.06900
O1979       O  0.77443468  0.80256206  0.77545626    -0.77900
O1980       O  0.77888348  0.75050136  0.74578713    -0.65100
Ni1981     Ni  0.70301893  0.70553837  0.84036263     1.34900
C1982       C  0.76323218  0.72542570  0.74125745     0.85600
O1983       O  0.69722209  0.77662292  0.81869139    -0.78500
O1984       O  0.67235866  0.73416998  0.83220640    -0.88700
C1985       C  0.76642683  0.81845025  0.79742857     0.85200
O1986       O  0.72244087  0.72698102  0.87792999    -0.66900
O1987       O  0.83214883  0.74161106  0.78712023    -0.86200
C1988       C  0.74113694  0.75019115  0.88350928     0.86000
C1989       C  0.67269237  0.76135078  0.82454666     1.07600
H1990       H  0.79348646  0.75703483  0.83312512     0.39400
O1991       O  0.78006977  0.75310064  0.81299663    -1.08900
O1992       O  0.75842474  0.70817418  0.76339442    -0.65500
Ni1993     Ni  0.76830680  0.71133054  0.80922755     1.26300
O1994       O  0.74970685  0.76644769  0.86198404    -0.65800
O1995       O  0.81051140  0.70091833  0.80775799    -0.78100
C1996       C  0.74275666  0.65882288  0.83123040     0.85400
O1997       O  0.75494792  0.66980258  0.80846006    -0.65200
Ni1998     Ni  0.80217684  0.77114133  0.78218103     1.27400
Ni1999     Ni  0.73911426  0.76543592  0.81623989     1.26100
H2000       H  0.71437872  0.72034236  0.79054643     0.39900
C2001       C  0.75901483  0.75649192  0.94482121    -0.12400
C2002       C  0.75310046  0.75743165  0.91633397    -0.14000
C2003       C  0.74436617  0.71789194  0.68044905    -0.12400
C2004       C  0.75066456  0.71695904  0.70887863    -0.14000
C2005       C  0.74101154  0.62633312  0.83543408    -0.15600
C2006       C  0.72478687  0.61434128  0.85718764    -0.30700
H2007       H  0.75006472  0.61207355  0.81859247     0.13500
H2008       H  0.71427982  0.62878536  0.87272570     0.14000
C2009       C  0.71742977  0.62592461  0.56369179    -0.15600
C2010       C  0.68826294  0.61580196  0.56832802    -0.30700
H2011       H  0.73465773  0.61006426  0.56078627     0.13500
H2012       H  0.67018919  0.63118847  0.56931865     0.14000
C2013       C  0.64204957  0.77432767  0.82134701    -0.15600
C2014       C  0.63594276  0.80136886  0.81024333    -0.30700
H2015       H  0.62251858  0.75917988  0.82605755     0.13500
H2016       H  0.65487209  0.81755032  0.80634645     0.14000
C2017       C  0.64651991  0.79237834  0.57959956    -0.15600
C2018       C  0.65635531  0.76474240  0.57673506    -0.30700
H2019       H  0.66410577  0.81106256  0.58572947     0.13500
H2020       H  0.63921364  0.74600766  0.56916261     0.14000
C2021       C  0.62464880  0.51463199  0.84715561    -0.15600
C2022       C  0.64016608  0.53867314  0.86310170    -0.30700
H2023       H  0.63717088  0.49926694  0.83460173     0.13500
H2024       H  0.62737402  0.55514023  0.87376312     0.14000
C2025       C  0.56002880  0.89246761  0.79963308    -0.15600
C2026       C  0.54923029  0.86809761  0.78140948    -0.30700
H2027       H  0.58151646  0.89236304  0.81655244     0.13500
H2028       H  0.52714932  0.86827209  0.76535788     0.14000
C2029       C  0.59814164  0.50593282  0.57467083    -0.15600
C2030       C  0.60858374  0.52945170  0.55922456    -0.30700
H2031       H  0.62911486  0.99525044  0.58849692     0.13500
H2032       H  0.59248007  0.53943646  0.54129226     0.14000
C2033       C  0.54858490  0.88329949  0.57527599    -0.15600
C2034       C  0.57111437  0.86883048  0.56382172    -0.30700
H2035       H  0.53413654  0.87180108  0.59067499     0.13500
H2036       H  0.58699284  0.88111783  0.55039170     0.14000
C2037       C  0.49487846  0.01540196  0.93558673    -0.12400
C2038       C  0.49566585  0.02005097  0.90798896    -0.14000
C2039       C  0.52691919  0.97784273  0.71038186    -0.12400
C2040       C  0.52667828  0.98077973  0.68236506    -0.14000
C2041       C  0.73684758  0.97684263  0.84396881    -0.12500
C2042       C  0.73837156  0.50830129  0.83363324     0.09700
C2043       C  0.76885795  0.51487272  0.82664326    -0.12500
C2044       C  0.79455685  0.99531228  0.82549139    -0.12500
C2045       C  0.78316124  0.96513760  0.82162107     0.09700
C2046       C  0.75440742  0.95602583  0.83150242    -0.12500
H2047       H  0.71444614  0.96916526  0.85079089     0.13700
H2048       H  0.78011337  0.53729528  0.83005284     0.13700
H2049       H  0.80857227  0.49857523  0.80952511     0.13700
H2050       H  0.74514750  0.93290941  0.82910144     0.13700
C2051       C  0.79433087  0.86362870  0.78173414    -0.15600
C2052       C  0.77268249  0.85097504  0.79791445    -0.30700
H2053       H  0.80636316  0.84987134  0.76689210     0.13500
H2054       H  0.76193045  0.86432942  0.81424814     0.14000
C2055       C  0.87721614  0.94257161  0.77729141    -0.15600
C2056       C  0.89265835  0.96822169  0.78984745    -0.30700
H2057       H  0.88943292  0.92638159  0.76550831     0.13500
H2058       H  0.88084489  0.98391099  0.80275594     0.14000
C2059       C  0.79284603  0.99300549  0.55215231    -0.12500
C2060       C  0.78562942  0.96210562  0.55224108     0.09700
C2061       C  0.75409156  0.95134692  0.55291302    -0.12500
C2062       C  0.73056646  0.97109332  0.55420116    -0.12500
C2063       C  0.72199690  0.51409606  0.57187725     0.09700
C2064       C  0.75397351  0.52521960  0.57558911    -0.12500
H2065       H  0.81673206  0.00218917  0.55148514     0.13700
H2066       H  0.74761304  0.92765541  0.55291226     0.13700
H2067       H  0.70662038  0.96212693  0.55491337     0.13700
H2068       H  0.76050723  0.54888721  0.57919030     0.13700
C2069       C  0.81991083  0.86017135  0.55797007    -0.15600
C2070       C  0.79150711  0.84976834  0.56440848    -0.30700
H2071       H  0.83772788  0.84491663  0.55516208     0.13500
H2072       H  0.77474582  0.86554964  0.56909397     0.14000
C2073       C  0.89869840  0.94667741  0.56450056    -0.15600
C2074       C  0.90814978  0.97166644  0.55086619    -0.30700
H2075       H  0.91548742  0.93578313  0.58094241     0.13500
H2076       H  0.89209479  0.98113379  0.53247564     0.14000
C2077       C  0.97286966  0.74332402  0.81983124    -0.12500
C2078       C  0.98246041  0.71479946  0.82656520     0.09700
C2079       C  0.51527169  0.70846121  0.78685397    -0.12500
C2080       C  0.53717536  0.73231669  0.78432839    -0.12500
C2081       C  0.52722939  0.76089621  0.77868920     0.09700
C2082       C  0.99496249  0.76684233  0.81667740    -0.12500
H2083       H  0.94818223  0.74750587  0.81659322     0.13700
H2084       H  0.52382068  0.68702247  0.79268107     0.13700
H2085       H  0.56198684  0.72858952  0.78834713     0.13700
H2086       H  0.98668627  0.78844255  0.81114668     0.13700
C2087       C  0.95659113  0.60972611  0.84120085    -0.15600
C2088       C  0.94803707  0.58580207  0.82154843    -0.30700
H2089       H  0.97726042  0.60958353  0.85920645     0.13500
H2090       H  0.92796598  0.58589214  0.80285026     0.14000
C2091       C  0.87167285  0.67728145  0.81284880    -0.15600
C2092       C  0.86441892  0.70336503  0.80016842    -0.30700
H2093       H  0.85352325  0.66177739  0.81968137     0.13500
H2094       H  0.88294588  0.71804056  0.79267219     0.14000
C2095       C  0.97119095  0.74502302  0.55833299    -0.12500
C2096       C  0.97731218  0.71471857  0.55896957     0.09700
C2097       C  0.51140262  0.71049867  0.57229674    -0.12500
C2098       C  0.53669818  0.73254823  0.57447988    -0.12500
C2099       C  0.53134700  0.76280706  0.57086448     0.09700
C2100       C  0.99593835  0.76766613  0.56094167    -0.12500
H2101       H  0.94722092  0.75135261  0.55604355     0.13700
H2102       H  0.51657672  0.68752127  0.57515592     0.13700
H2103       H  0.56050541  0.72579082  0.57886898     0.13700
H2104       H  0.99021062  0.79063607  0.56043985     0.13700
C2105       C  0.93927007  0.60775421  0.56542535    -0.15600
C2106       C  0.96071509  0.59292752  0.55257306    -0.30700
H2107       H  0.91699149  0.59757423  0.06915509     0.13500
H2108       H  0.97448003  0.60434533  0.53653609     0.14000
C2109       C  0.86296784  0.68306289  0.54911320    -0.15600
C2110       C  0.85309974  0.71067995  0.55145406    -0.30700
H2111       H  0.84553961  0.66422555  0.54315855     0.13500
H2112       H  0.87016060  0.72954836  0.55871823     0.14000
loop_ 
_geom_bond_atom_site_label_1 
_geom_bond_atom_site_label_2 
_geom_bond_distance 
_geom_bond_site_symmetry_2 
_ccdc_geom_bond_type 
C1            N6   1.361       .  A
C1          N266   1.363       .  A
C1          C521   1.494       .  S
N2            C3   1.368       .  A
N2          C265   1.363       .  A
C3            N4   1.370       .  A
C3          C248   1.504       .  S
N4          C269   1.365       .  A
C5            N6   1.363       .  A
C5          N268   1.365       .  A
C5          C525   1.496       .  S
C7            N8   1.366       .  A
C7           N12   1.355       .  A
C7          C243   1.480       .  S
N8            C9   1.367       .  A
C9           N10   1.359       .  A
C9          C239   1.485       .  S
N10          C11   1.350       .  A
C11          N12   1.348       .  A
C11         C230   1.476       .  S
C13          N14   1.364       .  A
C13          N18   1.364       .  A
C13         C221   1.501       .  S
N14          C15   1.365       .  A
C15          N16   1.362       .  A
C15         C225   1.488       .  S
N16          C17   1.364       .  A
C17          N18   1.364       .  A
C17         C212   1.499       .  S
C19          N20   1.359       .  A
C19          N24   1.357       .  A
C19         C203   1.463       .  S
N20          C21   1.362       .  A
C21          N22   1.351       .  A
C21         C197   1.468       .  S
N22          C23   1.351       .  A
C23          N24   1.353       .  A
C23         C207   1.462       .  S
O25          C46   1.268   1_455  A
O25        Ni295   1.918       .  S
O26          C35   1.269       .  A
O26         Ni49   1.913       .  S
O27         Ni31   1.920   1_655  S
O27         Ni49   1.909   1_655  S
O27       Ni1627   1.925       .  S
O27        H1106   0.966       .  S
C28         C258   1.501       .  S
C28          O45   1.272       .  A
C28          O37   1.273       .  A
O29        C1091   1.270       .  A
O29        Ni576   1.927       .  S
O30          C32   1.270       .  A
O30        Ni576   1.915       .  S
Ni31         O34   1.940       .  S
Ni31         O36   1.910       .  S
Ni31        O289   1.918   1_554  S
C32         C226   1.491       .  S
C32          O42   1.281       .  A
O33          C39   1.269       .  A
O33         Ni49   1.922       .  S
O34          C39   1.273       .  A
C35        O1085   1.269   1_455  A
C35         C192   1.438       .  S
O36          C38   1.271       .  A
O37         Ni48   1.949       .  S
C38         C709   1.490       .  S
C38          O44   1.282       .  A
C39         C185   1.490       .  S
H40          O41   0.966       .  S
O41        Ni577   1.933   1_545  S
O41       Ni1099   1.915   1_455  S
O41       Ni1104   1.926   1_455  S
O42        Ni571   1.966       .  S
Ni43         O45   1.933       .  S
Ni43        O570   1.967       .  S
Ni43        O311   1.915   1_554  S
Ni43       O1611   1.927   1_545  S
Ni43       O1097   1.912       .  S
O44         Ni49   1.968       .  S
C46        O1631   1.272       .  A
C46         C189   1.440       .  S
O47        C1630   1.271   1_545  A
O47        Ni307   1.920       .  S
Ni48        O557   1.919       .  S
Ni48        O558   1.911   1_545  S
Ni48       O1097   1.927       .  S
Ni49        O569   1.929       .  S
H50        O1083   0.967       .  S
O51          C72   1.269       .  A
O51         Ni57   1.918       .  S
O52         C589   1.268       .  A
O52         Ni75   1.901       .  S
O53         Ni57   1.915       .  S
O53       Ni1131   1.902       .  S
O53        Ni597   1.914       .  S
O53          H76   0.966       .  S
C54         C240   1.472       .  S
C54          O71   1.278       .  A
C54        O1119   1.276       .  A
O55          C61   1.267       .  A
O55         Ni74   1.915       .  S
O56          C58   1.262       .  A
O56         Ni74   1.897       .  S
Ni57         O62   1.902       .  S
Ni57       O1116   1.914       .  S
C58        O1652   1.270   1_455  A
C58         C718   1.436   1_455  S
O59          C65   1.275       .  A
O59         Ni75   1.925       .  S
O60          C65   1.276       .  A
O60       Ni1113   1.910   1_455  S
C61         C173   1.458       .  S
C61         O580   1.265   1_545  A
O62        C1120   1.265       .  A
O63        C1110   1.275   1_455  A
O63         Ni74   1.907       .  S
C64          O70   1.270       .  A
C64        O1118   1.265   1_455  A
C64         C191   1.438       .  S
C65         C177   1.482       .  S
H66          O67   0.966       .  S
O67         Ni74   1.902       .  S
O67        Ni603   1.901   1_545  S
O67       Ni1125   1.897   1_455  S
O68        C1642   1.273       .  A
O68        Ni597   1.938       .  S
Ni69         O71   1.930       .  S
Ni69        O596   1.944       .  S
Ni69        O601   1.895   1_545  S
Ni69        O581   1.917   1_545  S
Ni69       O1123   1.896       .  S
O70         Ni75   1.931       .  S
C72         C208   1.460       .  S
C72          O73   1.265       .  A
O73        Ni597   1.896       .  S
Ni75       O1109   1.913   1_455  S
Ni75        O595   1.911       .  S
C77          N78   1.362       .  A
C77          N82   1.356       .  A
C77         C186   1.484       .  S
N78          C79   1.367       .  A
C79          N80   1.370       .  A
C79         C251   1.500       .  S
N80          C81   1.365       .  A
C81          N82   1.357       .  A
C81         C169   1.489       .  S
C83          N84   1.364       .  A
C83          N88   1.353       .  A
C83         C178   1.468       .  S
N84          C85   1.364       .  A
C85          N86   1.360       .  A
C85         C166   1.479       .  S
N86          C87   1.351       .  A
C87          N88   1.350       .  A
C87         C233   1.478       .  S
C89          N90   1.351       .  A
C89          N94   1.365       .  A
C89         C162   1.479       .  S
N90          C91   1.353       .  A
C91          N92   1.363       .  A
C91         C215   1.491       .  S
N92          C93   1.367       .  A
C93          N94   1.369       .  A
C93         C182   1.488       .  S
C95          N96   1.358       .  A
C95         N100   1.355       .  A
C95         C158   1.459       .  S
N96          C97   1.359       .  A
C97          N98   1.350       .  A
C97         C194   1.465       .  S
N98          C99   1.349       .  A
C99         N100   1.351       .  A
C99         C174   1.457       .  S
O101        C122   1.271       .  A
O101       Ni107   1.929       .  S
O102        C111   1.266       .  A
O102       Ni125   1.912       .  S
O103       Ni107   1.911       .  S
O103       Ni125   1.915       .  S
O103       Ni119   1.916       .  S
O103        H126   0.966       .  S
C104        O121   1.281       .  A
C104        O113   1.277       .  A
C104        C153   1.443       .  S
O105        C111   1.276       .  A
O105       Ni124   1.938       .  S
O106        C108   1.271       .  A
O106       Ni124   1.913       .  S
Ni107       O110   1.924       .  S
Ni107       O112   1.917       .  S
C108        C262   1.507       .  S
C108        O118   1.285       .  A
O109        C115   1.275       .  A
O109       Ni125   1.926       .  S
O110        C115   1.276       .  A
C111        C161   1.489       .  S
O112        C114   1.269       .  A
O113       Ni388   1.919       .  S
C114        C170   1.494       .  S
C114        O120   1.271       .  A
C115        C155   1.438       .  S
H116        O117   0.966       .  S
O117       Ni125   1.913       .  S
O117       Ni119   1.922       .  S
O117       Ni124   1.908       .  S
O118       Ni119   1.970       .  S
Ni119       O123   1.946       .  S
Ni119       O385   1.926       .  S
O120       Ni125   1.937       .  S
O121       Ni383   1.940       .  S
C122        C222   1.492       .  S
C122        O123   1.278       .  A
Ni124       O377   1.926   1_554  S
O127        C148   1.269       .  A
O127       Ni133   1.919       .  S
O128        C137   1.271       .  A
O128       Ni151   1.924       .  S
O129       Ni133   1.888       .  S
O129       Ni151   1.902       .  S
O129       Ni145   1.910       .  S
O129        H152   0.966       .  S
C130        C244   1.469       .  S
C130        O147   1.276       .  A
C130        O139   1.279       .  A
O131        C137   1.267       .  A
O131       Ni150   1.911       .  S
O132        C134   1.262       .  A
O132       Ni150   1.892       .  S
Ni133       O136   1.912       .  S
Ni133       O138   1.897       .  S
C134        O144   1.271       .  A
C134        C156   1.436       .  S
O135        C141   1.281       .  A
O135       Ni151   1.931       .  S
O136        C141   1.277       .  A
C137        C204   1.476       .  S
O138        C140   1.264       .  A
O139       Ni150   1.920       .  S
C140        O146   1.273       .  A
C140        C154   1.442       .  S
C141        C165   1.469       .  S
H142        O143   0.966       .  S
O143       Ni151   1.919       .  S
O143       Ni145   1.897       .  S
O143       Ni150   1.886       .  S
O144       Ni145   1.940       .  S
Ni145       O149   1.905       .  S
Ni145       O147   1.920       .  S
O146       Ni151   1.943       .  S
C148        C157   1.469       .  S
C148        O149   1.267       .  A
C153        C154   1.211       .  T
C155        C156   1.207       .  T
C157        C158   1.343       .  D
C157        H159   1.087       .  S
C158        H160   1.087       .  S
C161        C162   1.344       .  D
C161        H163   1.086       .  S
C162        H164   1.087       .  S
C165        C166   1.345       .  D
C165        H167   1.088       .  S
C166        H168   1.086       .  S
C169        C170   1.349       .  D
C169        H171   1.087       .  S
C170        H172   1.086       .  S
C173        C174   1.344       .  D
C173        H175   1.087       .  S
C174        H176   1.087       .  S
C177        C178   1.343       .  D
C177        H179   1.086       .  S
C178        H180   1.087       .  S
C181        C566   1.490   1_545  S
C181        C182   1.352       .  D
C181        H711   1.086   1_545  S
C182        H184   1.087       .  S
H183        C709   1.086       .  S
C185        C186   1.348       .  D
C185        H187   1.086       .  S
C186        H188   1.087       .  S
C189        C190   1.209       .  T
C190        C586   1.441       .  S
C191        C192   1.208       .  T
C193        C198   1.390       .  A
C193        C722   1.409       .  A
C193        H199   1.083       .  S
C194        C195   1.399       .  A
C194        C721   1.407   1_545  A
C195        C724   1.389       .  A
C195        H200   1.083       .  S
C196        C197   1.408       .  A
C196        C723   1.394       .  A
C196        H729   1.083       .  S
C197        C198   1.398       .  A
C198        H202   1.083       .  S
H201        C724   1.083       .  S
C203        C204   1.347       .  D
C203        H205   1.087       .  S
C204        H206   1.086       .  S
C207        C208   1.342       .  D
C207        H209   1.087       .  S
C208        H210   1.087       .  S
C211        C212   1.409       .  A
C211        C744   1.406       .  A
C211        H217   1.083       .  S
C212        C213   1.408       .  A
C213        C214   1.403       .  A
C213        H218   1.083       .  S
C214        C743   1.408       .  A
C214        H219   1.083       .  S
C215        C216   1.409       .  A
C215        C742   1.406   1_545  A
C216        C739   1.396   1_545  A
C216        H220   1.083       .  S
C221        C222   1.350       .  D
C221        H223   1.086       .  S
C222        H224   1.087       .  S
C225        C226   1.351       .  D
C225        H227   1.086       .  S
C226        H228   1.086       .  S
C229        C230   1.405       .  A
C229        C234   1.393       .  A
C229        H235   1.083       .  S
C230       C1287   1.405       .  A
C231        C232   1.399       .  A
C231       C1286   1.407   1_455  A
C231        H236   1.083       .  S
C232        C233   1.406       .  A
C232        H237   1.083       .  S
C233       C1290   1.405   1_455  A
C234       C1289   1.404       .  A
C234        H238   1.083       .  S
C239        C240   1.350       .  D
C239        H241   1.086       .  S
C240        H242   1.087       .  S
C243        C244   1.350       .  D
C243        H245   1.086       .  S
C244        H246   1.087       .  S
C247        C248   1.409       .  A
C247        C252   1.408       .  A
C247        H253   1.083       .  S
C248       C1305   1.410       .  A
C249        C250   1.404       .  A
C249       C1304   1.409   1_455  A
C249        H254   1.083       .  S
C250        C251   1.407       .  A
C250        H255   1.083       .  S
C251       C1308   1.411   1_455  A
C252       C1307   1.410       .  A
C252        H256   1.083       .  S
C257        C265   1.499       .  S
C257        C258   1.356       .  D
C257        H523   1.086       .  S
C258        H260   1.086       .  S
H259        C521   1.086       .  S
C261        C269   1.501       .  S
C261        C262   1.361       .  D
C261        H263   1.086       .  S
C262        H264   1.086       .  S
C265        N270   1.363       .  A
N266        C267   1.368       .  A
C267        N268   1.369       .  A
C267        C512   1.502       .  S
C269        N270   1.365       .  A
C271        N272   1.367       .  A
C271        N276   1.350       .  A
C271        C507   1.471       .  S
N272        C273   1.367       .  A
C273        N274   1.363       .  A
C273        C503   1.490       .  S
N274        C275   1.354       .  A
C275        N276   1.350       .  A
C275        C494   1.478       .  S
C277        N278   1.367       .  A
C277        N282   1.350       .  A
C277        C485   1.486       .  S
N278        C279   1.373       .  A
C279        N280   1.367       .  A
C279        C489   1.496       .  S
N280        C281   1.364       .  A
C281        N282   1.354       .  A
C281        C476   1.488       .  S
C283        N284   1.360       .  A
C283        N288   1.354       .  A
C283        C467   1.464       .  S
N284        C285   1.363       .  A
C285        N286   1.354       .  A
C285        C461   1.473       .  S
N286        C287   1.351       .  A
C287        N288   1.350       .  A
C287        C471   1.460       .  S
O289        C310   1.268   1_455  A
O290        C299   1.271       .  A
O290       Ni313   1.917       .  S
O291       Ni295   1.929   1_655  S
O291       Ni313   1.913   1_655  S
O291      Ni1891   1.935       .  S
O291       H1370   0.966       .  S
C292        C522   1.500       .  S
C292        O309   1.274       .  A
C292        O301   1.273       .  A
O293       C1355   1.272       .  A
O293       Ni840   1.927       .  S
O294        C296   1.271       .  A
O294       Ni840   1.916       .  S
Ni295       O298   1.951       .  S
Ni295       O300   1.914       .  S
C296        C490   1.495       .  S
C296        O306   1.284       .  A
O297        C303   1.274       .  A
O297       Ni313   1.936       .  S
O298        C303   1.273       .  A
C299       O1349   1.270   1_455  A
C299        C456   1.441       .  S
O300        C302   1.270       .  A
O301       Ni312   1.944       .  S
C302        C973   1.486       .  S
C302        O308   1.281       .  A
C303        C449   1.505       .  S
H304        O305   0.967       .  S
O305       Ni841   1.931   1_545  S
O305      Ni1363   1.911   1_455  S
O305      Ni1368   1.923   1_455  S
O306       Ni835   1.973       .  S
Ni307       O834   1.968   1_545  S
Ni307       O309   1.934       .  S
Ni307      O1875   1.930   1_545  S
Ni307      O1361   1.913       .  S
O308       Ni313   1.965       .  S
C310       O1895   1.272       .  A
C310        C453   1.440       .  S
O311       C1894   1.270       .  A
Ni312       O821   1.918       .  S
Ni312       O822   1.916   1_545  S
Ni312      O1361   1.928       .  S
Ni313       O833   1.930       .  S
H314       O1347   0.967       .  S
O315        C336   1.270       .  A
O315       Ni321   1.923       .  S
O316        C853   1.262       .  A
O316       Ni339   1.886       .  S
O317       Ni321   1.911       .  S
O317      Ni1395   1.905       .  S
O317       Ni861   1.916       .  S
O317        H340   0.966       .  S
C318        C504   1.477       .  S
C318        O335   1.284       .  A
C318       O1383   1.275       .  A
O319        C325   1.270       .  A
O319       Ni338   1.920       .  S
O320        C322   1.265       .  A
O320       Ni338   1.911       .  S
Ni321      O1380   1.917       .  S
Ni321       O326   1.896       .  S
C322       O1916   1.272   1_455  A
C322        C982   1.452   1_455  S
O323        C329   1.271       .  A
O323       Ni339   1.923       .  S
O324        C329   1.274       .  A
O324      Ni1377   1.914   1_455  S
C325        C437   1.461       .  S
C325        O844   1.263   1_545  A
O326       C1384   1.264       .  A
O327       C1374   1.275   1_455  A
O327       Ni338   1.909       .  S
C328       O1382   1.266   1_455  A
C328        O334   1.273       .  A
C328        C455   1.441       .  S
C329        C441   1.486       .  S
H330        O331   0.967       .  S
O331       Ni867   1.904   1_545  S
O331      Ni1389   1.897   1_455  S
O331       Ni338   1.906       .  S
O332       C1906   1.272       .  A
O332       Ni861   1.937       .  S
Ni333       O860   1.935       .  S
Ni333       O865   1.902   1_545  S
Ni333       O335   1.950       .  S
Ni333       O845   1.930   1_545  S
Ni333      O1387   1.898       .  S
O334       Ni339   1.941       .  S
C336        C472   1.461       .  S
C336        O337   1.262       .  A
O337       Ni861   1.886       .  S
Ni339      O1373   1.910   1_455  S
Ni339       O859   1.919       .  S
C341        N342   1.363       .  A
C341        N346   1.364       .  A
C341        C450   1.503       .  S
N342        C343   1.369       .  A
C343        N344   1.373       .  A
C343        C515   1.506       .  S
N344        C345   1.367       .  A
C345        N346   1.366       .  A
C345        C433   1.507       .  S
C347        N348   1.364       .  A
C347        N352   1.354       .  A
C347        C442   1.470       .  S
N348        C349   1.365       .  A
C349        N350   1.361       .  A
C349        C430   1.477       .  S
N350        C351   1.350       .  A
C351        N352   1.350       .  A
C351        C497   1.476       .  S
C353        N354   1.366       .  A
C353        N358   1.357       .  A
C353        C426   1.487       .  S
N354        C355   1.366       .  A
C355        N356   1.363       .  A
C355        C479   1.499       .  S
N356        C357   1.361       .  A
C357        N358   1.357       .  A
C357        C446   1.475       .  S
C359        N360   1.357       .  A
C359        N364   1.352       .  A
C359        C422   1.460       .  S
N360        C361   1.360       .  A
C361        N362   1.355       .  A
C361        C458   1.472       .  S
N362        C363   1.353       .  A
C363        N364   1.351       .  A
C363        C438   1.459       .  S
O365        C386   1.280       .  A
O365       Ni371   1.952       .  S
O366        C375   1.277       .  A
O366       Ni389   1.934       .  S
O367       Ni371   1.910       .  S
O367       Ni389   1.921       .  S
O367       Ni383   1.919       .  S
O367        H390   0.966       .  S
C368        O385   1.277   1_556  A
C368        O377   1.275       .  A
C368        C417   1.441       .  S
O369        C375   1.269       .  A
O369       Ni388   1.923       .  S
O370        C372   1.268       .  A
O370       Ni388   1.916       .  S
Ni371       O374   1.940       .  S
Ni371       O376   1.921       .  S
C372        C526   1.501       .  S
C372        O382   1.275       .  A
O373        C379   1.273       .  A
O373       Ni389   1.918       .  S
O374        C379   1.277       .  A
C375        C425   1.481       .  S
O376        C378   1.274       .  A
C378        C434   1.513       .  S
C378        O384   1.286       .  A
C379        C419   1.446       .  S
H380        O381   0.966       .  S
O381       Ni389   1.907       .  S
O381       Ni383   1.901       .  S
O381       Ni388   1.902       .  S
O382       Ni383   1.951       .  S
Ni383       O387   1.911       .  S
O384       Ni389   1.977       .  S
C386        C486   1.494       .  S
C386        O387   1.268       .  A
O391        C412   1.270       .  A
O391       Ni397   1.924       .  S
O392        C401   1.268       .  A
O392       Ni415   1.907       .  S
O393       Ni397   1.900       .  S
O393       Ni415   1.898       .  S
O393       Ni409   1.891       .  S
O393        H416   0.966       .  S
C394        C508   1.480       .  S
C394        O411   1.262       .  A
C394        O403   1.276       .  A
O395        C401   1.274       .  A
O395       Ni414   1.924       .  S
O396        C398   1.265       .  A
O396       Ni414   1.891       .  S
Ni397       O400   1.907       .  S
Ni397       O402   1.899       .  S
C398        O408   1.281       .  A
C398        C420   1.444       .  S
O399        C405   1.282       .  A
O399       Ni415   1.936       .  S
O400        C405   1.275       .  A
C401        C468   1.479       .  S
O402        C404   1.264       .  A
O403       Ni414   1.939       .  S
C404        O410   1.271       .  A
C404        C418   1.442       .  S
C405        C429   1.469       .  S
H406        O407   0.966       .  S
O407       Ni415   1.935       .  S
O407       Ni409   1.917       .  S
O407       Ni414   1.914       .  S
O408       Ni409   1.963       .  S
Ni409       O413   1.901       .  S
Ni409       O411   1.897       .  S
O410       Ni415   1.941       .  S
C412        C421   1.470       .  S
C412        O413   1.264       .  A
C417        C418   1.210       .  T
C419        C420   1.212       .  T
C421        C422   1.342       .  D
C421        H423   1.087       .  S
C422        H424   1.087       .  S
C425        C426   1.341       .  D
C425        H427   1.087       .  S
C426        H428   1.087       .  S
C429        C430   1.343       .  D
C429        H431   1.089       .  S
C430        H432   1.086       .  S
C433        C434   1.362       .  D
C433        H435   1.086       .  S
C434        H436   1.086       .  S
C437        C438   1.341       .  D
C437        H439   1.087       .  S
C438        H440   1.087       .  S
C441        C442   1.345       .  D
C441        H443   1.086       .  S
C442        H444   1.087       .  S
C445        C830   1.478   1_545  S
C445        C446   1.343       .  D
C445        H975   1.087   1_545  S
C446        H448   1.087       .  S
H447        C973   1.086       .  S
C449        C450   1.358       .  D
C449        H451   1.086       .  S
C450        H452   1.086       .  S
C453        C454   1.209       .  T
C454        C850   1.441       .  S
C455        C456   1.210       .  T
C457        C986   1.408       .  A
C457        C462   1.394       .  A
C457        H463   1.083       .  S
C458        C985   1.407   1_545  A
C458        C459   1.402       .  A
C459        C988   1.390   1_545  A
C459        H464   1.083       .  S
C460        C987   1.391       .  A
C460        C461   1.408       .  A
C460        H993   1.083       .  S
C461        C462   1.401       .  A
C462        H466   1.083       .  S
H465        C988   1.083   1_545  S
C467        C468   1.344       .  D
C467        H469   1.087       .  S
C468        H470   1.087       .  S
C471        C472   1.341       .  D
C471        H473   1.087       .  S
C472        H474   1.087       .  S
C475        C476   1.405       .  A
C475       C1008   1.405       .  A
C475        H481   1.083       .  S
C476        C477   1.409       .  A
C477        C478   1.394       .  A
C477        H482   1.083       .  S
C478       C1007   1.403       .  A
C478        H483   1.083       .  S
C479       C1006   1.409   1_545  A
C479        C480   1.408       .  A
C480       C1003   1.405   1_545  A
C480        H484   1.083       .  S
C485        C486   1.345       .  D
C485        H487   1.087       .  S
C486        H488   1.086       .  S
C489        C490   1.355       .  D
C489        H491   1.086       .  S
C490        H492   1.086       .  S
C493        C494   1.406       .  A
C493        C498   1.392       .  A
C493        H499   1.083       .  S
C494       C1551   1.405       .  A
C495       C1550   1.406   1_455  A
C495        C496   1.400       .  A
C495        H500   1.083       .  S
C496        C497   1.406       .  A
C496        H501   1.083       .  S
C497       C1554   1.403   1_455  A
C498       C1553   1.403       .  A
C498        H502   1.083       .  S
C503        C504   1.347       .  D
C503        H505   1.086       .  S
C504        H506   1.088       .  S
C507        C508   1.338       .  D
C507        H509   1.087       .  S
C508        H510   1.087       .  S
C511        C512   1.408       .  A
C511        C516   1.405       .  A
C511        H517   1.083       .  S
C512       C1569   1.410       .  A
C513       C1568   1.412   1_455  A
C513        C514   1.407       .  A
C513        H518   1.083       .  S
C514        C515   1.408       .  A
C514        H519   1.083       .  S
C515       C1572   1.412   1_455  A
C516       C1571   1.410       .  A
C516        H520   1.083       .  S
C521        C522   1.355       .  D
C522        H524   1.086       .  S
C525        C526   1.356       .  D
C525        H527   1.087       .  S
C526        H528   1.086       .  S
C529        N794   1.366       .  A
C529        N534   1.359       .  A
C529       C1049   1.498       .  S
N530        C793   1.363       .  A
N530        C531   1.369       .  A
C531        N532   1.369       .  A
C531        C776   1.501       .  S
N532        C797   1.364       .  A
C533        N796   1.362       .  A
C533        N534   1.360       .  A
C533       C1053   1.491       .  S
C535        N536   1.363       .  A
C535        N540   1.361       .  A
C535        C771   1.481       .  S
N536        C537   1.363       .  A
C537        N538   1.354       .  A
C537        C767   1.465       .  S
N538        C539   1.351       .  A
C539        N540   1.352       .  A
C539        C758   1.479       .  S
C541        N542   1.366       .  A
C541        N546   1.362       .  A
C541        C749   1.495       .  S
N542        C543   1.366       .  A
C543        N544   1.359       .  A
C543        C753   1.487       .  S
N544        C545   1.360       .  A
C545        N546   1.359       .  A
C545        C740   1.491       .  S
C547        N548   1.359       .  A
C547        N552   1.359       .  A
C547        C731   1.466       .  S
N548        C549   1.358       .  A
C549        N550   1.348       .  A
C549        C725   1.466       .  S
N550        C551   1.347       .  A
C551        N552   1.355       .  A
C551        C735   1.463       .  S
O553        C574   1.271       .  A
O553       Ni823   1.925       .  S
O554        C563   1.273       .  A
O554       Ni577   1.928       .  S
O555       Ni559   1.927       .  S
O555       Ni577   1.919       .  S
O555      Ni1099   1.932   1_465  S
O555       H1634   0.966   1_455  S
C556        C786   1.495       .  S
C556        O573   1.272       .  A
C556        O565   1.275       .  A
O557       C1619   1.269   1_545  A
O558        C560   1.270       .  A
Ni559       O817   1.929   1_554  S
Ni559       O562   1.952       .  S
Ni559       O564   1.910       .  S
C560        C754   1.485       .  S
C560        O570   1.283   1_565  A
O561        C567   1.273       .  A
O561       Ni577   1.929       .  S
O562        C567   1.276       .  A
C563       O1613   1.270   1_465  A
C563        C720   1.448       .  S
O564        C566   1.270       .  A
O565       Ni576   1.948       .  S
C566        O572   1.282       .  A
C567        C713   1.503       .  S
H568        O569   0.968       .  S
O569      Ni1627   1.914   1_455  S
O569      Ni1632   1.925   1_455  S
Ni571       O839   1.920   1_554  S
Ni571       O573   1.925       .  S
Ni571      O1083   1.930       .  S
Ni571      O1625   1.914       .  S
O572       Ni577   1.966       .  S
C574       O1103   1.269   1_465  A
C574        C717   1.437   1_465  S
O575       C1102   1.270       .  A
O575       Ni835   1.917       .  S
Ni576      O1625   1.927       .  S
H578       O1611   0.966       .  S
O579        C600   1.267       .  A
O579       Ni585   1.912       .  S
O580       Ni603   1.896       .  S
O581       Ni585   1.897       .  S
O581      Ni1659   1.894       .  S
O581        H604   0.966       .  S
C582        C768   1.480       .  S
C582        O599   1.272       .  A
C582       O1647   1.276       .  A
O583        C589   1.264       .  A
O583       Ni602   1.915       .  S
O584        C586   1.265   1_455  A
O584       Ni602   1.899       .  S
Ni585      O1644   1.913       .  S
Ni585       O590   1.904       .  S
C586       O1124   1.273       .  A
O587        C593   1.268       .  A
O587       Ni603   1.906       .  S
O588        C593   1.278       .  A
O588      Ni1641   1.925   1_455  S
C589        C701   1.469       .  S
O590       C1648   1.265       .  A
O591       C1638   1.276       .  A
O591       Ni602   1.912   1_655  S
C592       O1646   1.267   1_455  A
C592        O598   1.276       .  A
C592        C719   1.448       .  S
C593        C705   1.477       .  S
H594        O595   0.966       .  S
O595      Ni1653   1.899   1_455  S
O595       Ni602   1.910       .  S
O596       C1114   1.274       .  A
Ni597       O599   1.917       .  S
Ni597      O1651   1.908       .  S
O598       Ni603   1.947       .  S
C600        C736   1.454       .  S
C600        O601   1.266       .  A
Ni603      O1637   1.905   1_455  S
C605        N606   1.366       .  A
C605        N610   1.362       .  A
C605        C714   1.499       .  S
N606        C607   1.371       .  A
C607        N608   1.371       .  A
C607        C779   1.506       .  S
N608        C609   1.364       .  A
C609        N610   1.363       .  A
C609        C697   1.500       .  S
C611        N612   1.364       .  A
C611        N616   1.349       .  A
C611        C706   1.464       .  S
N612        C613   1.365       .  A
C613        N614   1.361       .  A
C613        C694   1.481       .  S
N614        C615   1.354       .  A
C615        N616   1.349       .  A
C615        C761   1.473       .  S
C617        N618   1.365       .  A
C617        N622   1.362       .  A
C617        C690   1.496       .  S
N618        C619   1.364       .  A
C619        N620   1.365       .  A
C619        C743   1.500       .  S
N620        C621   1.362       .  A
C621        N622   1.362       .  A
C621        C710   1.486       .  S
C623        N624   1.363       .  A
C623        N628   1.362       .  A
C623        C686   1.475       .  S
N624        C625   1.361       .  A
C625        N626   1.350       .  A
C625        C722   1.471       .  S
N626        C627   1.344       .  A
C627        N628   1.358       .  A
C627        C702   1.461       .  S
O629        C650   1.272       .  A
O629       Ni635   1.931       .  S
O630        C639   1.277       .  A
O630       Ni653   1.942       .  S
O631       Ni635   1.897       .  S
O631       Ni653   1.916       .  S
O631       Ni647   1.908       .  S
O631        H654   0.966       .  S
C632        O649   1.279       .  A
C632        O641   1.275       .  A
C632        C681   1.436       .  S
O633        C639   1.271       .  A
O633       Ni652   1.929       .  S
O634        C636   1.269       .  A
O634       Ni652   1.911       .  S
Ni635       O638   1.916       .  S
Ni635       O640   1.911       .  S
C636        C790   1.499       .  S
C636        O646   1.277       .  A
O637        C643   1.279       .  A
O637       Ni653   1.928       .  S
O638        C643   1.275       .  A
C639        C689   1.489       .  S
O640        C642   1.270       .  A
O641       Ni916   1.919       .  S
C642        C698   1.508       .  S
C642        O648   1.283       .  A
C643        C683   1.433       .  S
H644        O645   0.966       .  S
O645       Ni653   1.914       .  S
O645       Ni647   1.918       .  S
O645       Ni652   1.904       .  S
O646       Ni647   1.953       .  S
Ni647       O651   1.934       .  S
Ni647       O913   1.925   1_554  S
O648       Ni653   1.970       .  S
O649       Ni911   1.930       .  S
C650        C750   1.486       .  S
C650        O651   1.273       .  A
Ni652       O905   1.922   1_554  S
O655        C676   1.272       .  A
O655       Ni661   1.924       .  S
O656        C665   1.266       .  A
O656       Ni679   1.914       .  S
O657       Ni661   1.910       .  S
O657       Ni679   1.917       .  S
O657       Ni673   1.930       .  S
O657        H680   0.966       .  S
C658        C772   1.470       .  S
C658        O675   1.279       .  A
C658        O667   1.273       .  A
O659        C665   1.266       .  A
O659       Ni678   1.913       .  S
O660        C662   1.264       .  A
O660       Ni678   1.900       .  S
Ni661       O664   1.934       .  S
Ni661       O666   1.902       .  S
C662        O672   1.267       .  A
C662        C684   1.435       .  S
O663        C669   1.268       .  A
O663       Ni679   1.910       .  S
O664        C669   1.272       .  A
C665        C732   1.473       .  S
O666        C668   1.269       .  A
O667       Ni678   1.907       .  S
C668        O674   1.277       .  A
C668        C682   1.437       .  S
C669        C693   1.474       .  S
H670        O671   0.966       .  S
O671       Ni679   1.906       .  S
O671       Ni673   1.907       .  S
O671       Ni678   1.909       .  S
O672       Ni673   1.926       .  S
Ni673       O677   1.907       .  S
Ni673       O675   1.933       .  S
O674       Ni679   1.954       .  S
C676        C685   1.479       .  S
C676        O677   1.268       .  A
C681        C682   1.207       .  T
C683        C684   1.206       .  T
C685        C686   1.348       .  D
C685        H687   1.086       .  S
C686        H688   1.087       .  S
C689        C690   1.347       .  D
C689        H691   1.087       .  S
C690        H692   1.086       .  S
C693        C694   1.346       .  D
C693        H695   1.087       .  S
C694        H696   1.086       .  S
C697        C698   1.361       .  D
C697        H699   1.086       .  S
C698        H700   1.086       .  S
C701        C702   1.336       .  D
C701        H703   1.087       .  S
C702        H704   1.087       .  S
C705        C706   1.337       .  D
C705        H707   1.087       .  S
C706        H708   1.087       .  S
C709        C710   1.349       .  D
C710        H712   1.086       .  S
C713        C714   1.354       .  D
C713        H715   1.086       .  S
C714        H716   1.086       .  S
C717        C718   1.207       .  T
C719        C720   1.214       .  T
C721        C726   1.390       .  A
C721        H727   1.083       .  S
C722        C723   1.401       .  A
C723        H728   1.083       .  S
C724        C725   1.408   1_545  A
C725        C726   1.399       .  A
C726        H730   1.083       .  S
C731        C732   1.346       .  D
C731        H733   1.087       .  S
C732        H734   1.087       .  S
C735        C736   1.345       .  D
C735        H737   1.087       .  S
C736        H738   1.087       .  S
C739        C740   1.405       .  A
C739        H745   1.083   1_565  S
C740        C741   1.410       .  A
C741        C742   1.405       .  A
C741        H746   1.083       .  S
C742        H747   1.083       .  S
C743        C744   1.410       .  A
C744        H748   1.083       .  S
C749        C750   1.351       .  D
C749        H751   1.086       .  S
C750        H752   1.087       .  S
C753        C754   1.351       .  D
C753        H755   1.086       .  S
C754        H756   1.086       .  S
C757        C758   1.407       .  A
C757        C762   1.398       .  A
C757        H763   1.083       .  S
C758       C1815   1.404       .  A
C759       C1814   1.406   1_455  A
C759        C760   1.396       .  A
C759        H764   1.083       .  S
C760        C761   1.403       .  A
C760        H765   1.083       .  S
C761       C1818   1.406   1_455  A
C762       C1817   1.404       .  A
C762        H766   1.083       .  S
C767        C768   1.342       .  D
C767        H769   1.087       .  S
C768        H770   1.087       .  S
C771        C772   1.344       .  D
C771        H773   1.086       .  S
C772        H774   1.088       .  S
C775        C776   1.409       .  A
C775        C780   1.406       .  A
C775        H781   1.083       .  S
C776       C1833   1.409       .  A
C777       C1832   1.409   1_455  A
C777        C778   1.405       .  A
C777        H782   1.083       .  S
C778        C779   1.409       .  A
C778        H783   1.083       .  S
C779       C1836   1.411   1_455  A
C780       C1835   1.409       .  A
C780        H784   1.083       .  S
C785        C793   1.491       .  S
C785        C786   1.351       .  D
C785       H1051   1.086       .  S
C786        H788   1.086       .  S
H787       C1049   1.086       .  S
C789        C797   1.492       .  S
C789        C790   1.355       .  D
C789        H791   1.087       .  S
C790        H792   1.086       .  S
C793        N798   1.359       .  A
N794        C795   1.372       .  A
C795        N796   1.369       .  A
C795       C1040   1.502       .  S
C797        N798   1.360       .  A
C799        N800   1.367       .  A
C799        N804   1.359       .  A
C799       C1035   1.488       .  S
N800        C801   1.368       .  A
C801        N802   1.352       .  A
C801       C1031   1.467       .  S
N802        C803   1.349       .  A
C803        N804   1.350       .  A
C803       C1022   1.474       .  S
C805        N806   1.365       .  A
C805        N810   1.363       .  A
C805       C1013   1.499       .  S
N806        C807   1.365       .  A
C807        N808   1.363       .  A
C807       C1017   1.490       .  S
N808        C809   1.364       .  A
C809        N810   1.363       .  A
C809       C1004   1.499       .  S
C811        N812   1.357       .  A
C811        N816   1.358       .  A
C811        C995   1.468       .  S
N812        C813   1.358       .  A
C813        N814   1.353       .  A
C813        C989   1.471       .  S
N814        C815   1.352       .  A
C815        N816   1.356       .  A
C815        C999   1.469       .  S
O817        C838   1.271   1_565  A
O818        C827   1.269       .  A
O818       Ni841   1.916       .  S
O819       Ni823   1.920       .  S
O819       Ni841   1.910       .  S
O819      Ni1363   1.924   1_465  S
O819       H1898   0.966   1_455  S
C820       C1050   1.502       .  S
C820        O837   1.272       .  A
C820        O829   1.276       .  A
O821       C1883   1.268   1_545  A
O822        C824   1.271       .  A
Ni823       O826   1.946       .  S
Ni823       O828   1.908       .  S
C824       C1018   1.493       .  S
C824        O834   1.282       .  A
O825        C831   1.271       .  A
O825       Ni841   1.922       .  S
O826        C831   1.275       .  A
C827       O1877   1.269   1_465  A
C827        C984   1.440       .  S
O828        C830   1.270       .  A
O829       Ni840   1.955       .  S
C830        O836   1.277       .  A
C831        C977   1.494       .  S
H832        O833   0.966       .  S
O833      Ni1891   1.912   1_455  S
O833      Ni1896   1.924   1_455  S
Ni835       O837   1.928       .  S
Ni835      O1347   1.936       .  S
Ni835      O1889   1.905       .  S
O836       Ni841   1.954       .  S
C838       O1367   1.273   1_455  A
C838        C981   1.451   1_455  S
O839       C1366   1.271       .  A
Ni840      O1889   1.921       .  S
H842       O1875   0.967       .  S
O843        C864   1.272       .  A
O843       Ni849   1.923       .  S
O844       Ni867   1.892       .  S
O845       Ni849   1.911       .  S
O845      Ni1923   1.907       .  S
O845        H868   0.966       .  S
C846       C1032   1.482       .  S
C846        O863   1.272       .  A
C846       O1911   1.279       .  A
O847        C853   1.270       .  A
O847       Ni866   1.921       .  S
O848        C850   1.265   1_455  A
O848       Ni866   1.897       .  S
Ni849      O1908   1.937       .  S
Ni849       O854   1.894       .  S
C850       O1388   1.274       .  A
O851        C857   1.267       .  A
O851       Ni867   1.909       .  S
O852        C857   1.275       .  A
O852      Ni1905   1.928   1_455  S
C853        C965   1.459       .  S
O854       C1912   1.265       .  A
O855       C1902   1.274       .  A
O855       Ni866   1.922   1_655  S
C856       O1910   1.264   1_455  A
C856        O862   1.277       .  A
C856        C983   1.439       .  S
C857        C969   1.483       .  S
H858        O859   0.967       .  S
O859      Ni1917   1.905   1_455  S
O859       Ni866   1.919       .  S
O860       C1378   1.271       .  A
Ni861       O863   1.917       .  S
Ni861      O1915   1.897       .  S
O862       Ni867   1.952       .  S
C864       C1000   1.469       .  S
C864        O865   1.269       .  A
Ni867      O1901   1.910   1_455  S
C869        N870   1.364       .  A
C869        N874   1.358       .  A
C869        C978   1.488       .  S
N870        C871   1.369       .  A
C871        N872   1.368       .  A
C871       C1043   1.500       .  S
N872        C873   1.362       .  A
C873        N874   1.359       .  A
C873        C961   1.489       .  S
C875        N876   1.368       .  A
C875        N880   1.354       .  A
C875        C970   1.469       .  S
N876        C877   1.367       .  A
C877        N878   1.358       .  A
C877        C958   1.488       .  S
N878        C879   1.348       .  A
C879        N880   1.350       .  A
C879       C1025   1.475       .  S
C881        N882   1.361       .  A
C881        N886   1.366       .  A
C881        C954   1.492       .  S
N882        C883   1.356       .  A
C883        N884   1.360       .  A
C883       C1007   1.488       .  S
N884        C885   1.359       .  A
C885        N886   1.366       .  A
C885        C974   1.486       .  S
C887        N888   1.357       .  A
C887        N892   1.355       .  A
C887        C950   1.461       .  S
N888        C889   1.359       .  A
C889        N890   1.352       .  A
C889        C986   1.471       .  S
N890        C891   1.352       .  A
C891        N892   1.352       .  A
C891        C966   1.461       .  S
O893        C914   1.270       .  A
O893       Ni899   1.926       .  S
O894        C903   1.271       .  A
O894       Ni917   1.929       .  S
O895       Ni899   1.897       .  S
O895       Ni917   1.912       .  S
O895       Ni911   1.914       .  S
O895        H918   0.966       .  S
C896        O913   1.277       .  A
C896        O905   1.276       .  A
C896        C945   1.436       .  S
O897        C903   1.270       .  A
O897       Ni916   1.929       .  S
O898        C900   1.268       .  A
O898       Ni916   1.904       .  S
Ni899       O902   1.919       .  S
Ni899       O904   1.909       .  S
C900       C1054   1.499       .  S
C900        O910   1.278       .  A
O901        C907   1.278       .  A
O901       Ni917   1.930       .  S
O902        C907   1.276       .  A
C903        C953   1.480       .  S
O904        C906   1.269       .  A
C906        C962   1.496       .  S
C906        O912   1.276       .  A
C907        C947   1.437       .  S
H908        O909   0.966       .  S
O909       Ni917   1.914       .  S
O909       Ni911   1.921       .  S
O909       Ni916   1.902       .  S
O910       Ni911   1.956       .  S
Ni911       O915   1.945       .  S
O912       Ni917   1.950       .  S
C914       C1014   1.490       .  S
C914        O915   1.277       .  A
O919        C940   1.268       .  A
O919       Ni925   1.914       .  S
O920        C929   1.268       .  A
O920       Ni943   1.911       .  S
O921       Ni925   1.888       .  S
O921       Ni943   1.898       .  S
O921       Ni937   1.915       .  S
O921        H944   0.966       .  S
C922       C1036   1.473       .  S
C922        O939   1.276       .  A
C922        O931   1.277       .  A
O923        C929   1.269       .  A
O923       Ni942   1.919       .  S
O924        C926   1.264       .  A
O924       Ni942   1.897       .  S
Ni925       O928   1.906       .  S
Ni925       O930   1.899       .  S
C926        O936   1.271       .  A
C926        C948   1.437       .  S
O927        C933   1.282       .  A
O927       Ni943   1.940       .  S
O928        C933   1.277       .  A
C929        C996   1.472       .  S
O930        C932   1.264       .  A
O931       Ni942   1.920       .  S
C932        O938   1.270       .  A
C932        C946   1.436       .  S
C933        C957   1.470       .  S
H934        O935   0.966       .  S
O935       Ni943   1.921       .  S
O935       Ni937   1.907       .  S
O935       Ni942   1.896       .  S
O936       Ni937   1.939       .  S
Ni937       O941   1.908       .  S
Ni937       O939   1.925       .  S
O938       Ni943   1.934       .  S
C940        C949   1.468       .  S
C940        O941   1.266       .  A
C945        C946   1.207       .  T
C947        C948   1.207       .  T
C949        C950   1.342       .  D
C949        H951   1.087       .  S
C950        H952   1.087       .  S
C953        C954   1.349       .  D
C953        H955   1.087       .  S
C954        H956   1.086       .  S
C957        C958   1.350       .  D
C957        H959   1.087       .  S
C958        H960   1.086       .  S
C961        C962   1.353       .  D
C961        H963   1.087       .  S
C962        H964   1.086       .  S
C965        C966   1.341       .  D
C965        H967   1.087       .  S
C966        H968   1.087       .  S
C969        C970   1.341       .  D
C969        H971   1.087       .  S
C970        H972   1.087       .  S
C973        C974   1.351       .  D
C974        H976   1.086       .  S
C977        C978   1.350       .  D
C977        H979   1.086       .  S
C978        H980   1.086       .  S
C981        C982   1.216       .  T
C983        C984   1.209       .  T
C985        C990   1.394       .  A
C985        H991   1.083       .  S
C986        C987   1.401       .  A
C987        H992   1.083       .  S
C988        C989   1.406       .  A
C989        C990   1.403       .  A
C990        H994   1.083       .  S
C995        C996   1.346       .  D
C995        H997   1.087       .  S
C996        H998   1.087       .  S
C999       C1000   1.348       .  D
C999       H1001   1.087       .  S
C1000      H1002   1.087       .  S
C1003      C1004   1.409       .  A
C1003      H1009   1.083   1_565  S
C1004      C1005   1.409       .  A
C1005      C1006   1.404       .  A
C1005      H1010   1.083       .  S
C1006      H1011   1.083       .  S
C1007      C1008   1.411       .  A
C1008      H1012   1.083       .  S
C1013      C1014   1.351       .  D
C1013      H1015   1.086       .  S
C1014      H1016   1.087       .  S
C1017      C1018   1.351       .  D
C1017      H1019   1.086       .  S
C1018      H1020   1.086       .  S
C1021      C1022   1.405       .  A
C1021      C1026   1.394       .  A
C1021      H1027   1.083       .  S
C1022      C2079   1.404       .  A
C1023      C2078   1.405   1_455  A
C1023      C1024   1.396       .  A
C1023      H1028   1.083       .  S
C1024      C1025   1.407       .  A
C1024      H1029   1.083       .  S
C1025      C2082   1.403   1_455  A
C1026      C2081   1.404       .  A
C1026      H1030   1.083       .  S
C1031      C1032   1.339       .  D
C1031      H1033   1.087       .  S
C1032      H1034   1.087       .  S
C1035      C1036   1.351       .  D
C1035      H1037   1.086       .  S
C1036      H1038   1.087       .  S
C1039      C1040   1.410       .  A
C1039      C1044   1.405       .  A
C1039      H1045   1.083       .  S
C1040      C2097   1.409       .  A
C1041      C2096   1.407   1_455  A
C1041      C1042   1.404       .  A
C1041      H1046   1.082       .  S
C1042      C1043   1.409       .  A
C1042      H1047   1.082       .  S
C1043      C2100   1.409   1_455  A
C1044      C2099   1.408       .  A
C1044      H1048   1.083       .  S
C1049      C1050   1.353       .  D
C1050      H1052   1.086       .  S
C1053      C1054   1.356       .  D
C1053      H1055   1.087       .  S
C1054      H1056   1.086       .  S
C1057      N1322   1.361       .  A
C1057      N1062   1.359       .  A
C1057      C1577   1.491       .  S
N1058      C1321   1.362       .  A
N1058      C1059   1.367       .  A
C1059      N1060   1.368       .  A
C1059      C1304   1.500       .  S
N1060      C1325   1.364       .  A
C1061      N1324   1.369       .  A
C1061      N1062   1.361       .  A
C1061      C1581   1.500       .  S
C1063      N1064   1.363       .  A
C1063      N1068   1.359       .  A
C1063      C1299   1.483       .  S
N1064      C1065   1.363       .  A
C1065      N1066   1.360       .  A
C1065      C1295   1.477       .  S
N1066      C1067   1.350       .  A
C1067      N1068   1.351       .  A
C1067      C1286   1.478       .  S
C1069      N1070   1.362       .  A
C1069      N1074   1.363       .  A
C1069      C1277   1.487       .  S
N1070      C1071   1.361       .  A
C1071      N1072   1.359       .  A
C1071      C1281   1.481       .  S
N1072      C1073   1.361       .  A
C1073      N1074   1.359       .  A
C1073      C1268   1.491       .  S
C1075      N1076   1.357       .  A
C1075      N1080   1.356       .  A
C1075      C1259   1.460       .  S
N1076      C1077   1.357       .  A
C1077      N1078   1.353       .  A
C1077      C1253   1.472       .  S
N1078      C1079   1.353       .  A
C1079      N1080   1.353       .  A
C1079      C1263   1.467       .  S
O1081      C1102   1.268       .  A
O1081     Ni1351   1.915       .  S
O1082      C1091   1.270       .  A
O1082     Ni1105   1.916       .  S
O1083     Ni1087   1.927       .  S
O1083     Ni1105   1.918       .  S
C1084      C1314   1.499       .  S
C1084      O1101   1.273       .  A
C1084      O1093   1.274       .  A
O1085     Ni1632   1.922       .  S
O1086      C1088   1.270       .  A
O1086     Ni1632   1.911       .  S
Ni1087     O1345   1.917   1_554  S
Ni1087     O1090   1.941       .  S
Ni1087     O1092   1.907       .  S
C1088      C1282   1.478       .  S
C1088      O1098   1.280       .  A
O1089      C1095   1.271       .  A
O1089     Ni1105   1.926       .  S
O1090      C1095   1.273       .  A
C1091      C1248   1.442       .  S
O1092      C1094   1.268       .  A
O1093     Ni1104   1.950       .  S
C1094      C1765   1.491       .  S
C1094      O1100   1.283       .  A
C1095      C1241   1.497       .  S
H1096      O1097   0.966       .  S
O1097     Ni1633   1.936   1_545  S
O1098     Ni1627   1.959       .  S
Ni1099     O1626   1.966       .  S
Ni1099     O1367   1.927   1_554  S
Ni1099     O1101   1.931       .  S
O1100     Ni1105   1.970       .  S
C1102      C1245   1.436       .  S
O1103     Ni1363   1.911       .  S
Ni1104     O1613   1.924       .  S
Ni1104     O1614   1.911   1_545  S
Ni1105     O1625   1.924       .  S
O1107      C1128   1.269       .  A
O1107     Ni1113   1.928       .  S
O1108      C1645   1.262       .  A
O1108     Ni1131   1.882       .  S
O1109     Ni1113   1.914       .  S
O1109     Ni1653   1.912       .  S
O1109      H1132   0.966       .  S
C1110      C1296   1.466       .  S
C1110      O1127   1.280       .  A
O1111      C1117   1.267       .  A
O1111     Ni1130   1.912       .  S
O1112      C1114   1.265       .  A
O1112     Ni1130   1.904       .  S
Ni1113     O1118   1.904       .  S
C1114      C1774   1.445       .  S
O1115      C1121   1.272       .  A
O1115     Ni1131   1.919       .  S
O1116      C1121   1.275       .  A
C1117      C1229   1.461       .  S
C1117      O1636   1.267   1_545  A
O1119     Ni1130   1.915       .  S
C1120      O1126   1.272       .  A
C1120      C1247   1.442       .  S
C1121      C1233   1.481       .  S
H1122      O1123   0.966       .  S
O1123     Ni1659   1.923   1_545  S
O1123     Ni1130   1.896       .  S
O1124     Ni1653   1.943       .  S
Ni1125     O1652   1.935       .  S
Ni1125     O1657   1.895   1_545  S
Ni1125     O1127   1.929       .  S
Ni1125     O1637   1.919   1_545  S
O1126     Ni1131   1.941       .  S
C1128      C1264   1.462       .  S
C1128      O1129   1.262       .  A
O1129     Ni1653   1.889       .  S
Ni1131     O1651   1.914       .  S
C1133      N1134   1.365       .  A
C1133      N1138   1.358       .  A
C1133      C1242   1.490       .  S
N1134      C1135   1.370       .  A
C1135      N1136   1.370       .  A
C1135      C1307   1.505       .  S
N1136      C1137   1.365       .  A
C1137      N1138   1.359       .  A
C1137      C1225   1.492       .  S
C1139      N1140   1.364       .  A
C1139      N1144   1.353       .  A
C1139      C1234   1.466       .  S
N1140      C1141   1.364       .  A
C1141      N1142   1.361       .  A
C1141      C1222   1.483       .  S
N1142      C1143   1.353       .  A
C1143      N1144   1.351       .  A
C1143      C1289   1.475       .  S
C1145      N1146   1.345       .  A
C1145      N1150   1.361       .  A
C1145      C1218   1.469       .  S
N1146      C1147   1.350       .  A
C1147      N1148   1.365       .  A
C1147      C1271   1.486       .  S
N1148      C1149   1.369       .  A
C1149      N1150   1.367       .  A
C1149      C1238   1.484       .  S
C1151      N1152   1.360       .  A
C1151      N1156   1.356       .  A
C1151      C1214   1.466       .  S
N1152      C1153   1.360       .  A
C1153      N1154   1.353       .  A
C1153      C1250   1.473       .  S
N1154      C1155   1.350       .  A
C1155      N1156   1.353       .  A
C1155      C1230   1.462       .  S
O1157      C1178   1.271       .  A
O1157     Ni1163   1.927       .  S
O1158      C1167   1.266       .  A
O1158     Ni1181   1.908       .  S
O1159     Ni1163   1.905       .  S
O1159     Ni1181   1.908       .  S
O1159     Ni1175   1.918       .  S
O1159      H1182   0.966       .  S
C1160      O1177   1.274       .  A
C1160      O1169   1.276       .  A
C1160      C1209   1.434       .  S
O1161      C1167   1.275       .  A
O1161     Ni1180   1.929       .  S
O1162      C1164   1.270       .  A
O1162     Ni1180   1.915       .  S
Ni1163     O1166   1.921       .  S
Ni1163     O1168   1.915       .  S
C1164      C1318   1.502       .  S
C1164      O1174   1.280       .  A
O1165      C1171   1.276       .  A
O1165     Ni1181   1.928       .  S
O1166      C1171   1.276       .  A
C1167      C1217   1.480       .  S
O1168      C1170   1.269       .  A
O1169     Ni1444   1.924       .  S
C1170      C1226   1.498       .  S
C1170      O1176   1.275       .  A
C1171      C1211   1.438       .  S
H1172      O1173   0.966       .  S
O1173     Ni1181   1.913       .  S
O1173     Ni1175   1.908       .  S
O1173     Ni1180   1.905       .  S
O1174     Ni1175   1.959       .  S
Ni1175     O1179   1.925       .  S
Ni1175     O1441   1.928       .  S
O1176     Ni1181   1.946       .  S
O1177     Ni1439   1.917       .  S
C1178      C1278   1.475       .  S
C1178      O1179   1.273       .  A
Ni1180     O1433   1.924   1_554  S
O1183      C1204   1.271       .  A
O1183     Ni1189   1.924       .  S
O1184      C1193   1.266       .  A
O1184     Ni1207   1.911       .  S
O1185     Ni1189   1.897       .  S
O1185     Ni1207   1.909       .  S
O1185     Ni1201   1.917       .  S
O1185      H1208   0.966       .  S
C1186      C1300   1.470       .  S
C1186      O1203   1.281       .  A
C1186      O1195   1.276       .  A
O1187      C1193   1.266       .  A
O1187     Ni1206   1.910       .  S
O1188      C1190   1.263       .  A
O1188     Ni1206   1.896       .  S
Ni1189     O1192   1.920       .  S
Ni1189     O1194   1.895       .  S
C1190      O1200   1.270       .  A
C1190      C1212   1.436       .  S
O1191      C1197   1.277       .  A
O1191     Ni1207   1.924       .  S
O1192      C1197   1.276       .  A
C1193      C1260   1.467       .  S
O1194      C1196   1.264       .  A
O1195     Ni1206   1.909       .  S
C1196      O1202   1.271       .  A
C1196      C1210   1.434       .  S
C1197      C1221   1.474       .  S
H1198      O1199   0.966       .  S
O1199     Ni1207   1.915       .  S
O1199     Ni1201   1.899       .  S
O1199     Ni1206   1.890       .  S
O1200     Ni1201   1.936       .  S
Ni1201     O1205   1.907       .  S
Ni1201     O1203   1.935       .  S
O1202     Ni1207   1.936       .  S
C1204      C1213   1.473       .  S
C1204      O1205   1.268       .  A
C1209      C1210   1.205       .  T
C1211      C1212   1.207       .  T
C1213      C1214   1.344       .  D
C1213      H1215   1.087       .  S
C1214      H1216   1.087       .  S
C1217      C1218   1.339       .  D
C1217      H1219   1.086       .  S
C1218      H1220   1.087       .  S
C1221      C1222   1.347       .  D
C1221      H1223   1.087       .  S
C1222      H1224   1.086       .  S
C1225      C1226   1.353       .  D
C1225      H1227   1.087       .  S
C1226      H1228   1.086       .  S
C1229      C1230   1.344       .  D
C1229      H1231   1.087   1_545  S
C1230      H1232   1.087       .  S
C1233      C1234   1.343       .  D
C1233      H1235   1.086       .  S
C1234      H1236   1.087       .  S
C1237      C1622   1.488   1_545  S
C1237      C1238   1.349       .  D
C1237      H1767   1.086   1_545  S
C1238      H1240   1.087       .  S
H1239      C1765   1.086       .  S
C1241      C1242   1.351       .  D
C1241      H1243   1.086       .  S
C1242      H1244   1.086       .  S
C1245      C1246   1.207       .  T
C1246      C1642   1.438       .  S
C1247      C1248   1.210       .  T
C1249      C1778   1.407       .  A
C1249      C1254   1.394       .  A
C1249      H1255   1.083       .  S
C1250      C1777   1.407   1_545  A
C1250      C1251   1.402       .  A
C1251      C1780   1.395   1_545  A
C1251      H1256   1.083       .  S
C1252      C1779   1.391       .  A
C1252      C1253   1.406       .  A
C1252      H1785   1.083       .  S
C1253      C1254   1.403       .  A
C1254      H1258   1.083       .  S
H1257      C1780   1.083   1_545  S
C1259      C1260   1.344       .  D
C1259      H1261   1.087       .  S
C1260      H1262   1.087       .  S
C1263      C1264   1.342       .  D
C1263      H1265   1.087       .  S
C1264      H1266   1.087       .  S
C1267      C1268   1.403       .  A
C1267      C1800   1.395       .  A
C1267      H1273   1.083       .  S
C1268      C1269   1.411       .  A
C1269      C1270   1.408       .  A
C1269      H1274   1.083       .  S
C1270      C1799   1.407       .  A
C1270      H1275   1.083       .  S
C1271      C1798   1.403   1_545  A
C1271      C1272   1.411       .  A
C1272      C1795   1.393   1_545  A
C1272      H1276   1.083       .  S
C1277      C1278   1.344       .  D
C1277      H1279   1.086       .  S
C1278      H1280   1.087       .  S
C1281      C1282   1.346       .  D
C1281      H1283   1.087       .  S
C1282      H1284   1.086       .  S
C1285      C1286   1.403       .  A
C1285      C1290   1.393       .  A
C1285      H1291   1.083       .  S
C1287      C1288   1.397       .  A
C1287      H1292   1.083       .  S
C1288      C1289   1.405       .  A
C1288      H1293   1.083       .  S
C1290      H1294   1.083       .  S
C1295      C1296   1.343       .  D
C1295      H1297   1.086       .  S
C1296      H1298   1.088       .  S
C1299      C1300   1.347       .  D
C1299      H1301   1.086       .  S
C1300      H1302   1.087       .  S
C1303      C1304   1.408       .  A
C1303      C1308   1.406       .  A
C1303      H1309   1.083       .  S
C1305      C1306   1.407       .  A
C1305      H1310   1.083       .  S
C1306      C1307   1.409       .  A
C1306      H1311   1.083       .  S
C1308      H1312   1.083       .  S
C1313      C1321   1.497       .  S
C1313      C1314   1.355       .  D
C1313      H1579   1.086       .  S
C1314      H1316   1.086       .  S
H1315      C1577   1.087       .  S
C1317      C1325   1.497       .  S
C1317      C1318   1.357       .  D
C1317      H1319   1.086       .  S
C1318      H1320   1.086       .  S
C1321      N1326   1.362       .  A
N1322      C1323   1.367       .  A
C1323      N1324   1.373       .  A
C1323      C1568   1.506       .  S
C1325      N1326   1.364       .  A
C1327      N1328   1.367       .  A
C1327      N1332   1.352       .  A
C1327      C1563   1.470       .  S
N1328      C1329   1.366       .  A
C1329      N1330   1.362       .  A
C1329      C1559   1.488       .  S
N1330      C1331   1.353       .  A
C1331      N1332   1.350       .  A
C1331      C1550   1.477       .  S
C1333      N1334   1.365       .  A
C1333      N1338   1.350       .  A
C1333      C1541   1.484       .  S
N1334      C1335   1.371       .  A
C1335      N1336   1.369       .  A
C1335      C1545   1.493       .  S
N1336      C1337   1.366       .  A
C1337      N1338   1.354       .  A
C1337      C1532   1.492       .  S
C1339      N1340   1.362       .  A
C1339      N1344   1.353       .  A
C1339      C1523   1.461       .  S
N1340      C1341   1.362       .  A
C1341      N1342   1.355       .  A
C1341      C1517   1.479       .  S
N1342      C1343   1.353       .  A
C1343      N1344   1.349       .  A
C1343      C1527   1.464       .  S
O1345      C1366   1.267       .  A
O1346      C1355   1.270       .  A
O1346     Ni1369   1.914       .  S
O1347     Ni1351   1.928       .  S
O1347     Ni1369   1.912       .  S
C1348      C1578   1.494       .  S
C1348      O1365   1.271       .  A
C1348      O1357   1.272       .  A
O1349     Ni1896   1.924       .  S
O1350      C1352   1.270       .  A
O1350     Ni1896   1.912       .  S
Ni1351     O1354   1.944       .  S
Ni1351     O1356   1.912       .  S
C1352      C1546   1.495       .  S
C1352      O1362   1.283       .  A
O1353      C1359   1.272       .  A
O1353     Ni1369   1.932       .  S
O1354      C1359   1.272       .  A
C1355      C1512   1.440       .  S
O1356      C1358   1.271       .  A
O1357     Ni1368   1.944       .  S
C1358      C2029   1.483       .  S
C1358      O1364   1.280       .  A
C1359      C1505   1.496       .  S
H1360      O1361   0.967       .  S
O1361     Ni1897   1.931   1_545  S
O1362     Ni1891   1.972       .  S
Ni1363     O1890   1.958   1_545  S
Ni1363     O1365   1.928       .  S
O1364     Ni1369   1.960       .  S
C1366      C1509   1.440       .  S
Ni1368     O1877   1.920       .  S
Ni1368     O1878   1.912   1_545  S
Ni1369     O1889   1.926       .  S
O1371      C1392   1.270       .  A
O1371     Ni1377   1.926       .  S
O1372      C1909   1.264       .  A
O1372     Ni1395   1.885       .  S
O1373     Ni1377   1.920       .  S
O1373     Ni1917   1.914       .  S
O1373      H1396   0.966       .  S
C1374      C1560   1.476       .  S
C1374      O1391   1.282       .  A
O1375      C1381   1.269       .  A
O1375     Ni1394   1.922       .  S
O1376      C1378   1.264       .  A
O1376     Ni1394   1.905       .  S
Ni1377     O1382   1.903       .  S
C1378      C2038   1.441       .  S
O1379      C1385   1.273       .  A
O1379     Ni1395   1.924       .  S
O1380      C1385   1.275       .  A
C1381      C1493   1.461       .  S
C1381      O1900   1.262   1_545  A
O1383     Ni1394   1.906       .  S
C1384      O1390   1.274       .  A
C1384      C1511   1.440       .  S
C1385      C1497   1.485       .  S
H1386      O1387   0.966       .  S
O1387     Ni1923   1.902   1_545  S
O1387     Ni1394   1.904       .  S
O1388     Ni1917   1.946       .  S
Ni1389     O1916   1.943       .  S
Ni1389     O1921   1.893   1_545  S
Ni1389     O1391   1.945       .  S
Ni1389     O1901   1.931   1_545  S
O1390     Ni1395   1.946       .  S
C1392      C1528   1.461       .  S
C1392      O1393   1.260       .  A
O1393     Ni1917   1.884       .  S
Ni1395     O1915   1.913       .  S
C1397      N1398   1.361       .  A
C1397      N1402   1.362       .  A
C1397      C1506   1.493       .  S
N1398      C1399   1.366       .  A
C1399      N1400   1.369       .  A
C1399      C1571   1.501       .  S
N1400      C1401   1.366       .  A
C1401      N1402   1.363       .  A
C1401      C1489   1.498       .  S
C1403      N1404   1.365       .  A
C1403      N1408   1.356       .  A
C1403      C1498   1.471       .  S
N1404      C1405   1.364       .  A
C1405      N1406   1.360       .  A
C1405      C1486   1.477       .  S
N1406      C1407   1.350       .  A
C1407      N1408   1.353       .  A
C1407      C1553   1.479       .  S
C1409      N1410   1.352       .  A
C1409      N1414   1.365       .  A
C1409      C1482   1.482       .  S
N1410      C1411   1.353       .  A
C1411      N1412   1.363       .  A
C1411      C1535   1.491       .  S
N1412      C1413   1.367       .  A
C1413      N1414   1.371       .  A
C1413      C1502   1.489       .  S
C1415      N1416   1.357       .  A
C1415      N1420   1.352       .  A
C1415      C1478   1.457       .  S
N1416      C1417   1.359       .  A
C1417      N1418   1.355       .  A
C1417      C1514   1.473       .  S
N1418      C1419   1.353       .  A
C1419      N1420   1.350       .  A
C1419      C1494   1.458       .  S
O1421      C1442   1.276       .  A
O1421     Ni1427   1.941       .  S
O1422      C1431   1.268       .  A
O1422     Ni1445   1.921       .  S
O1423     Ni1427   1.918       .  S
O1423     Ni1445   1.922       .  S
O1423     Ni1439   1.913       .  S
O1423      H1446   0.966       .  S
C1424      O1441   1.278   1_556  A
C1424      O1433   1.276       .  A
C1424      C1473   1.439       .  S
O1425      C1431   1.276       .  A
O1425     Ni1444   1.937       .  S
O1426      C1428   1.272       .  A
O1426     Ni1444   1.926       .  S
Ni1427     O1430   1.932       .  S
Ni1427     O1432   1.925       .  S
C1428      C1582   1.503       .  S
C1428      O1438   1.275       .  A
O1429      C1435   1.272       .  A
O1429     Ni1445   1.915       .  S
O1430      C1435   1.276       .  A
C1431      C1481   1.494       .  S
O1432      C1434   1.272       .  A
C1434      C1490   1.500       .  S
C1434      O1440   1.276       .  A
C1435      C1475   1.441       .  S
H1436      O1437   0.966       .  S
O1437     Ni1445   1.905       .  S
O1437     Ni1439   1.915       .  S
O1437     Ni1444   1.913       .  S
O1438     Ni1439   1.947       .  S
Ni1439     O1443   1.920       .  S
O1440     Ni1445   1.948       .  S
C1442      C1542   1.494       .  S
C1442      O1443   1.269       .  A
O1447      C1468   1.269       .  A
O1447     Ni1453   1.918       .  S
O1448      C1457   1.264       .  A
O1448     Ni1471   1.896       .  S
O1449     Ni1453   1.898       .  S
O1449     Ni1471   1.895       .  S
O1449     Ni1465   1.895       .  S
O1449      H1472   0.966       .  S
C1450      C1564   1.481       .  S
C1450      O1467   1.264       .  A
C1450      O1459   1.277       .  A
O1451      C1457   1.273       .  A
O1451     Ni1470   1.927       .  S
O1452      C1454   1.264       .  A
O1452     Ni1470   1.888       .  S
Ni1453     O1456   1.906       .  S
Ni1453     O1458   1.900       .  S
C1454      O1464   1.278       .  A
C1454      C1476   1.439       .  S
O1455      C1461   1.279       .  A
O1455     Ni1471   1.932       .  S
O1456      C1461   1.274       .  A
C1457      C1524   1.473       .  S
O1458      C1460   1.264       .  A
O1459     Ni1470   1.937       .  S
C1460      O1466   1.269       .  A
C1460      C1474   1.440       .  S
C1461      C1485   1.467       .  S
H1462      O1463   0.966       .  S
O1463     Ni1471   1.927       .  S
O1463     Ni1465   1.915       .  S
O1463     Ni1470   1.908       .  S
O1464     Ni1465   1.957       .  S
Ni1465     O1469   1.900       .  S
Ni1465     O1467   1.900       .  S
O1466     Ni1471   1.934       .  S
C1468      C1477   1.467       .  S
C1468      O1469   1.264       .  A
C1473      C1474   1.209       .  T
C1475      C1476   1.209       .  T
C1477      C1478   1.341       .  D
C1477      H1479   1.087       .  S
C1478      H1480   1.087       .  S
C1481      C1482   1.346       .  D
C1481      H1483   1.086       .  S
C1482      H1484   1.087       .  S
C1485      C1486   1.343       .  D
C1485      H1487   1.089       .  S
C1486      H1488   1.086       .  S
C1489      C1490   1.354       .  D
C1489      H1491   1.086       .  S
C1490      H1492   1.086       .  S
C1493      C1494   1.340       .  D
C1493      H1495   1.087   1_545  S
C1494      H1496   1.087       .  S
C1497      C1498   1.346       .  D
C1497      H1499   1.086       .  S
C1498      H1500   1.087       .  S
C1501      C1886   1.491   1_545  S
C1501      C1502   1.351       .  D
C1501      H2031   1.086   1_545  S
C1502      H1504   1.086       .  S
H1503      C2029   1.086       .  S
C1505      C1506   1.354       .  D
C1505      H1507   1.086       .  S
C1506      H1508   1.086       .  S
C1509      C1510   1.210       .  T
C1510      C1906   1.442       .  S
C1511      C1512   1.209       .  T
C1513      C2042   1.410       .  A
C1513      C1518   1.397       .  A
C1513      H1519   1.083       .  S
C1514      C2041   1.406   1_545  A
C1514      C1515   1.403       .  A
C1515      C2044   1.392   1_545  A
C1515      H1520   1.083       .  S
C1516      C2043   1.394       .  A
C1516      C1517   1.409       .  A
C1516      H2049   1.083       .  S
C1517      C1518   1.402       .  A
C1518      H1522   1.083       .  S
H1521      C2044   1.083   1_545  S
C1523      C1524   1.341       .  D
C1523      H1525   1.087       .  S
C1524      H1526   1.087       .  S
C1527      C1528   1.340       .  D
C1527      H1529   1.087       .  S
C1528      H1530   1.087       .  S
C1531      C1532   1.405       .  A
C1531      C2064   1.406       .  A
C1531      H1537   1.083       .  S
C1532      C1533   1.410       .  A
C1533      C1534   1.395       .  A
C1533      H1538   1.083       .  S
C1534      C2063   1.402       .  A
C1534      H1539   1.083       .  S
C1535      C2062   1.406   1_545  A
C1535      C1536   1.410       .  A
C1536      C2059   1.396   1_545  A
C1536      H1540   1.083       .  S
C1541      C1542   1.346       .  D
C1541      H1543   1.087       .  S
C1542      H1544   1.086       .  S
C1545      C1546   1.353       .  D
C1545      H1547   1.086       .  S
C1546      H1548   1.086       .  S
C1549      C1550   1.404       .  A
C1549      C1554   1.392       .  A
C1549      H1555   1.083       .  S
C1551      C1552   1.399       .  A
C1551      H1556   1.083       .  S
C1552      C1553   1.408       .  A
C1552      H1557   1.083       .  S
C1554      H1558   1.083       .  S
C1559      C1560   1.347       .  D
C1559      H1561   1.086       .  S
C1560      H1562   1.088       .  S
C1563      C1564   1.340       .  D
C1563      H1565   1.087       .  S
C1564      H1566   1.087       .  S
C1567      C1568   1.408       .  A
C1567      C1572   1.409       .  A
C1567      H1573   1.083       .  S
C1569      C1570   1.406       .  A
C1569      H1574   1.083       .  S
C1570      C1571   1.408       .  A
C1570      H1575   1.083       .  S
C1572      H1576   1.083       .  S
C1577      C1578   1.352       .  D
C1578      H1580   1.086       .  S
C1581      C1582   1.353       .  D
C1581      H1583   1.087       .  S
C1582      H1584   1.086       .  S
C1585      N1850   1.366       .  A
C1585      N1590   1.359       .  A
C1585      C2105   1.494       .  S
N1586      C1849   1.363       .  A
N1586      C1587   1.369       .  A
C1587      N1588   1.371       .  A
C1587      C1832   1.506       .  S
N1588      C1853   1.367       .  A
C1589      N1852   1.361       .  A
C1589      N1590   1.359       .  A
C1589      C2109   1.486       .  S
C1591      N1592   1.357       .  A
C1591      N1596   1.358       .  A
C1591      C1827   1.470       .  S
N1592      C1593   1.359       .  A
C1593      N1594   1.354       .  A
C1593      C1823   1.453       .  S
N1594      C1595   1.350       .  A
C1595      N1596   1.352       .  A
C1595      C1814   1.472       .  S
C1597      N1598   1.363       .  A
C1597      N1602   1.358       .  A
C1597      C1805   1.490       .  S
N1598      C1599   1.365       .  A
C1599      N1600   1.362       .  A
C1599      C1809   1.486       .  S
N1600      C1601   1.362       .  A
C1601      N1602   1.355       .  A
C1601      C1796   1.487       .  S
C1603      N1604   1.357       .  A
C1603      N1608   1.355       .  A
C1603      C1787   1.466       .  S
N1604      C1605   1.358       .  A
C1605      N1606   1.355       .  A
C1605      C1781   1.474       .  S
N1606      C1607   1.355       .  A
C1607      N1608   1.354       .  A
C1607      C1791   1.466       .  S
O1609      C1630   1.271       .  A
O1609     Ni1879   1.928       .  S
O1610      C1619   1.271       .  A
O1610     Ni1633   1.920       .  S
O1611     Ni1615   1.924       .  S
O1611     Ni1633   1.913       .  S
C1612      C1842   1.497       .  S
C1612      O1629   1.271       .  A
C1612      O1621   1.274       .  A
O1614      C1616   1.271       .  A
Ni1615     O1873   1.929   1_554  S
Ni1615     O1618   1.951       .  S
Ni1615     O1620   1.907       .  S
C1616      C1810   1.484       .  S
C1616      O1626   1.282   1_565  A
O1617      C1623   1.273       .  A
O1617     Ni1633   1.925       .  S
O1618      C1623   1.277       .  A
C1619      C1776   1.442       .  S
O1620      C1622   1.269       .  A
O1621     Ni1632   1.949       .  S
C1622      O1628   1.280       .  A
C1623      C1769   1.498       .  S
H1624      O1625   0.967       .  S
Ni1627     O1895   1.921   1_554  S
Ni1627     O1629   1.925       .  S
O1628     Ni1633   1.962       .  S
C1630      C1773   1.445   1_565  S
O1631     Ni1891   1.921       .  S
O1635      C1656   1.273       .  A
O1635     Ni1641   1.929       .  S
O1636     Ni1659   1.903       .  S
O1637     Ni1641   1.904       .  S
O1637      H1660   0.966       .  S
C1638      C1824   1.469       .  S
C1638      O1655   1.270       .  A
O1639      C1645   1.272       .  A
O1639     Ni1658   1.933       .  S
O1640      C1642   1.266       .  A
O1640     Ni1658   1.901       .  S
Ni1641     O1646   1.906       .  S
O1643      C1649   1.280       .  A
O1643     Ni1659   1.925       .  S
O1644      C1649   1.276       .  A
C1645      C1757   1.461       .  S
O1647     Ni1658   1.919       .  S
C1648      O1654   1.272       .  A
C1648      C1775   1.442       .  S
C1649      C1761   1.468       .  S
H1650      O1651   0.966       .  S
O1651     Ni1658   1.915       .  S
Ni1653     O1655   1.906       .  S
O1654     Ni1659   1.939       .  S
C1656      C1792   1.466       .  S
C1656      O1657   1.266       .  A
C1661      N1662   1.364       .  A
C1661      N1666   1.361       .  A
C1661      C1770   1.494       .  S
N1662      C1663   1.369       .  A
C1663      N1664   1.367       .  A
C1663      C1835   1.501       .  S
N1664      C1665   1.363       .  A
C1665      N1666   1.361       .  A
C1665      C1753   1.492       .  S
C1667      N1668   1.363       .  A
C1667      N1672   1.362       .  A
C1667      C1762   1.477       .  S
N1668      C1669   1.360       .  A
C1669      N1670   1.355       .  A
C1669      C1750   1.476       .  S
N1670      C1671   1.348       .  A
C1671      N1672   1.353       .  A
C1671      C1817   1.478       .  S
C1673      N1674   1.351       .  A
C1673      N1678   1.365       .  A
C1673      C1746   1.484       .  S
N1674      C1675   1.354       .  A
C1675      N1676   1.363       .  A
C1675      C1799   1.493       .  S
N1676      C1677   1.367       .  A
C1677      N1678   1.371       .  A
C1677      C1766   1.488       .  S
C1679      N1680   1.357       .  A
C1679      N1684   1.357       .  A
C1679      C1742   1.463       .  S
N1680      C1681   1.358       .  A
C1681      N1682   1.353       .  A
C1681      C1778   1.473       .  S
N1682      C1683   1.354       .  A
C1683      N1684   1.354       .  A
C1683      C1758   1.468       .  S
O1685      C1706   1.270       .  A
O1685     Ni1691   1.926       .  S
O1686      C1695   1.269       .  A
O1686     Ni1709   1.918       .  S
O1687     Ni1691   1.906       .  S
O1687     Ni1709   1.909       .  S
O1687     Ni1703   1.910       .  S
O1687      H1710   0.966       .  S
C1688      O1705   1.275       .  A
C1688      O1697   1.276       .  A
C1688      C1737   1.437       .  S
O1689      C1695   1.277       .  A
O1689     Ni1708   1.940       .  S
O1690      C1692   1.273       .  A
O1690     Ni1708   1.922       .  S
Ni1691     O1694   1.921       .  S
Ni1691     O1696   1.916       .  S
C1692      C1846   1.502       .  S
C1692      O1702   1.278       .  A
O1693      C1699   1.277       .  A
O1693     Ni1709   1.926       .  S
O1694      C1699   1.277       .  A
C1695      C1745   1.494       .  S
O1696      C1698   1.268       .  A
O1697     Ni1972   1.924       .  S
C1698      C1754   1.494       .  S
C1698      O1704   1.273       .  A
C1699      C1739   1.437       .  S
H1700      O1701   0.966       .  S
O1701     Ni1709   1.913       .  S
O1701     Ni1703   1.919       .  S
O1701     Ni1708   1.909       .  S
O1702     Ni1703   1.954       .  S
Ni1703     O1707   1.932       .  S
Ni1703     O1969   1.922   1_554  S
O1704     Ni1709   1.942       .  S
O1705     Ni1967   1.923       .  S
C1706      C1806   1.478       .  S
C1706      O1707   1.273       .  A
Ni1708     O1961   1.929   1_554  S
O1711      C1732   1.266       .  A
O1711     Ni1717   1.912       .  S
O1712      C1721   1.267       .  A
O1712     Ni1735   1.909       .  S
O1713     Ni1717   1.895       .  S
O1713     Ni1735   1.904       .  S
O1713     Ni1729   1.912       .  S
O1713      H1736   0.966       .  S
C1714      C1828   1.461       .  S
C1714      O1731   1.277       .  A
C1714      O1723   1.273       .  A
O1715      C1721   1.267       .  A
O1715     Ni1734   1.913       .  S
O1716      C1718   1.264       .  A
O1716     Ni1734   1.895       .  S
Ni1717     O1720   1.911       .  S
Ni1717     O1722   1.891       .  S
C1718      O1728   1.271       .  A
C1718      C1740   1.435       .  S
O1719      C1725   1.277       .  A
O1719     Ni1735   1.921       .  S
O1720      C1725   1.276       .  A
C1721      C1788   1.470       .  S
O1722      C1724   1.262       .  A
O1723     Ni1734   1.905       .  S
C1724      O1730   1.271       .  A
C1724      C1738   1.436       .  S
C1725      C1749   1.464       .  S
H1726      O1727   0.966       .  S
O1727     Ni1735   1.913       .  S
O1727     Ni1729   1.906       .  S
O1727     Ni1734   1.899       .  S
O1728     Ni1729   1.937       .  S
Ni1729     O1733   1.915       .  S
Ni1729     O1731   1.919       .  S
O1730     Ni1735   1.939       .  S
C1732      C1741   1.471       .  S
C1732      O1733   1.268       .  A
C1737      C1738   1.207       .  T
C1739      C1740   1.207       .  T
C1741      C1742   1.346       .  D
C1741      H1743   1.086       .  S
C1742      H1744   1.087       .  S
C1745      C1746   1.346       .  D
C1745      H1747   1.086       .  S
C1746      H1748   1.087       .  S
C1749      C1750   1.345       .  D
C1749      H1751   1.087       .  S
C1750      H1752   1.086       .  S
C1753      C1754   1.352       .  D
C1753      H1755   1.087       .  S
C1754      H1756   1.086       .  S
C1757      C1758   1.341       .  D
C1757      H1759   1.087       .  S
C1758      H1760   1.087       .  S
C1761      C1762   1.343       .  D
C1761      H1763   1.087       .  S
C1762      H1764   1.086       .  S
C1765      C1766   1.352       .  D
C1766      H1768   1.087       .  S
C1769      C1770   1.352       .  D
C1769      H1771   1.086       .  S
C1770      H1772   1.086       .  S
C1773      C1774   1.212       .  T
C1775      C1776   1.210       .  T
C1777      C1782   1.391       .  A
C1777      H1783   1.083       .  S
C1778      C1779   1.402       .  A
C1779      H1784   1.083       .  S
C1780      C1781   1.407       .  A
C1781      C1782   1.402       .  A
C1782      H1786   1.083       .  S
C1787      C1788   1.344       .  D
C1787      H1789   1.087       .  S
C1788      H1790   1.087       .  S
C1791      C1792   1.342       .  D
C1791      H1793   1.087       .  S
C1792      H1794   1.087       .  S
C1795      C1796   1.401       .  A
C1795      H1801   1.083   1_565  S
C1796      C1797   1.412       .  A
C1797      C1798   1.404       .  A
C1797      H1802   1.083       .  S
C1798      H1803   1.083       .  S
C1799      C1800   1.409       .  A
C1800      H1804   1.083       .  S
C1805      C1806   1.348       .  D
C1805      H1807   1.086       .  S
C1806      H1808   1.087       .  S
C1809      C1810   1.349       .  D
C1809      H1811   1.086       .  S
C1810      H1812   1.086       .  S
C1813      C1814   1.402       .  A
C1813      C1818   1.391       .  A
C1813      H1819   1.083       .  S
C1815      C1816   1.393       .  A
C1815      H1820   1.083       .  S
C1816      C1817   1.406       .  A
C1816      H1821   1.083       .  S
C1818      H1822   1.083       .  S
C1823      C1824   1.339       .  D
C1823      H1825   1.087       .  S
C1824      H1826   1.087       .  S
C1827      C1828   1.340       .  D
C1827      H1829   1.086       .  S
C1828      H1830   1.088       .  S
C1831      C1832   1.411       .  A
C1831      C1836   1.411       .  A
C1831      H1837   1.083       .  S
C1833      C1834   1.406       .  A
C1833      H1838   1.083       .  S
C1834      C1835   1.410       .  A
C1834      H1839   1.083       .  S
C1836      H1840   1.083       .  S
C1841      C1849   1.493       .  S
C1841      C1842   1.352       .  D
C1841      H2107   1.086       .  S
C1842      H1844   1.086       .  S
H1843      C2105   1.086       .  S
C1845      C1853   1.496       .  S
C1845      C1846   1.354       .  D
C1845      H1847   1.087       .  S
C1846      H1848   1.086       .  S
C1849      N1854   1.359       .  A
N1850      C1851   1.371       .  A
C1851      N1852   1.365       .  A
C1851      C2096   1.501       .  S
C1853      N1854   1.361       .  A
C1855      N1856   1.363       .  A
C1855      N1860   1.356       .  A
C1855      C2091   1.481       .  S
N1856      C1857   1.365       .  A
C1857      N1858   1.356       .  A
C1857      C2087   1.463       .  S
N1858      C1859   1.351       .  A
C1859      N1860   1.350       .  A
C1859      C2078   1.475       .  S
C1861      N1862   1.362       .  A
C1861      N1866   1.362       .  A
C1861      C2069   1.486       .  S
N1862      C1863   1.362       .  A
C1863      N1864   1.360       .  A
C1863      C2073   1.480       .  S
N1864      C1865   1.360       .  A
C1865      N1866   1.357       .  A
C1865      C2060   1.490       .  S
C1867      N1868   1.358       .  A
C1867      N1872   1.357       .  A
C1867      C2051   1.468       .  S
N1868      C1869   1.358       .  A
C1869      N1870   1.353       .  A
C1869      C2045   1.472       .  S
N1870      C1871   1.353       .  A
C1871      N1872   1.355       .  A
C1871      C2055   1.465       .  S
O1873      C1894   1.271   1_565  A
O1874      C1883   1.270       .  A
O1874     Ni1897   1.918       .  S
O1875     Ni1879   1.927       .  S
O1875     Ni1897   1.915       .  S
C1876      C2106   1.500       .  S
C1876      O1893   1.272       .  A
C1876      O1885   1.276       .  A
O1878      C1880   1.272       .  A
Ni1879     O1882   1.948       .  S
Ni1879     O1884   1.913       .  S
C1880      C2074   1.478       .  S
C1880      O1890   1.280       .  A
O1881      C1887   1.272       .  A
O1881     Ni1897   1.926       .  S
O1882      C1887   1.275       .  A
C1883      C2040   1.438       .  S
O1884      C1886   1.270       .  A
O1885     Ni1896   1.949       .  S
C1886      O1892   1.281       .  A
C1887      C2033   1.498       .  S
H1888      O1889   0.967       .  S
Ni1891     O1893   1.928       .  S
O1892     Ni1897   1.964       .  S
C1894      C2037   1.441       .  S
O1899      C1920   1.271       .  A
O1899     Ni1905   1.921       .  S
O1900     Ni1923   1.890       .  S
O1901     Ni1905   1.915       .  S
O1901      H1924   0.966       .  S
C1902      C2088   1.478       .  S
C1902      O1919   1.268       .  A
O1903      C1909   1.272       .  A
O1903     Ni1922   1.929       .  S
O1904      C1906   1.265       .  A
O1904     Ni1922   1.904       .  S
Ni1905     O1910   1.893       .  S
O1907      C1913   1.265       .  A
O1907     Ni1923   1.902       .  S
O1908      C1913   1.277       .  A
C1909      C2021   1.458       .  S
O1911     Ni1922   1.924       .  S
C1912      O1918   1.276       .  A
C1912      C2039   1.438       .  S
C1913      C2025   1.482       .  S
H1914      O1915   0.966       .  S
O1915     Ni1922   1.909       .  S
Ni1917     O1919   1.911       .  S
O1918     Ni1923   1.952       .  S
C1920      C2056   1.464       .  S
C1920      O1921   1.266       .  A
C1925      N1926   1.363       .  A
C1925      N1930   1.360       .  A
C1925      C2034   1.493       .  S
N1926      C1927   1.369       .  A
C1927      N1928   1.368       .  A
C1927      C2099   1.501       .  S
N1928      C1929   1.363       .  A
C1929      N1930   1.361       .  A
C1929      C2017   1.492       .  S
C1931      N1932   1.369       .  A
C1931      N1936   1.354       .  A
C1931      C2026   1.470       .  S
N1932      C1933   1.367       .  A
C1933      N1934   1.356       .  A
C1933      C2014   1.485       .  S
N1934      C1935   1.348       .  A
C1935      N1936   1.350       .  A
C1935      C2081   1.473       .  S
C1937      N1938   1.359       .  A
C1937      N1942   1.363       .  A
C1937      C2010   1.486       .  S
N1938      C1939   1.355       .  A
C1939      N1940   1.362       .  A
C1939      C2063   1.490       .  S
N1940      C1941   1.362       .  A
C1941      N1942   1.364       .  A
C1941      C2030   1.484       .  S
C1943      N1944   1.362       .  A
C1943      N1948   1.356       .  A
C1943      C2006   1.467       .  S
N1944      C1945   1.363       .  A
C1945      N1946   1.353       .  A
C1945      C2042   1.478       .  S
N1946      C1947   1.352       .  A
C1947      N1948   1.352       .  A
C1947      C2022   1.464       .  S
O1949      C1970   1.270       .  A
O1949     Ni1955   1.925       .  S
O1950      C1959   1.270       .  A
O1950     Ni1973   1.919       .  S
O1951     Ni1955   1.901       .  S
O1951     Ni1973   1.910       .  S
O1951     Ni1967   1.910       .  S
O1951      H1974   0.966       .  S
C1952      O1969   1.275       .  A
C1952      O1961   1.276       .  A
C1952      C2001   1.441       .  S
O1953      C1959   1.271       .  A
O1953     Ni1972   1.930       .  S
O1954      C1956   1.268       .  A
O1954     Ni1972   1.905       .  S
Ni1955     O1958   1.919       .  S
Ni1955     O1960   1.910       .  S
C1956      C2110   1.491       .  S
C1956      O1966   1.276       .  A
O1957      C1963   1.277       .  A
O1957     Ni1973   1.930       .  S
O1958      C1963   1.275       .  A
C1959      C2009   1.474       .  S
O1960      C1962   1.268       .  A
C1962      C2018   1.497       .  S
C1962      O1968   1.277       .  A
C1963      C2003   1.439       .  S
H1964      O1965   0.966       .  S
O1965     Ni1973   1.914       .  S
O1965     Ni1967   1.915       .  S
O1965     Ni1972   1.905       .  S
O1966     Ni1967   1.948       .  S
Ni1967     O1971   1.924       .  S
O1968     Ni1973   1.951       .  S
C1970      C2070   1.476       .  S
C1970      O1971   1.271       .  A
O1975      C1996   1.270       .  A
O1975     Ni1981   1.925       .  S
O1976      C1985   1.266       .  A
O1976     Ni1999   1.903       .  S
O1977     Ni1981   1.900       .  S
O1977     Ni1999   1.909       .  S
O1977     Ni1993   1.916       .  S
O1977      H2000   0.966       .  S
C1978      C2092   1.470       .  S
C1978      O1995   1.276       .  A
C1978      O1987   1.276       .  A
O1979      C1985   1.270       .  A
O1979     Ni1998   1.923       .  S
O1980      C1982   1.265       .  A
O1980     Ni1998   1.898       .  S
Ni1981     O1984   1.919       .  S
Ni1981     O1986   1.898       .  S
C1982      O1992   1.272       .  A
C1982      C2004   1.439       .  S
O1983      C1989   1.276       .  A
O1983     Ni1999   1.926       .  S
O1984      C1989   1.277       .  A
C1985      C2052   1.469       .  S
O1986      C1988   1.264       .  A
O1987     Ni1998   1.919       .  S
C1988      O1994   1.272       .  A
C1988      C2002   1.441       .  S
C1989      C2013   1.473       .  S
H1990      O1991   0.966       .  S
O1991     Ni1999   1.912       .  S
O1991     Ni1993   1.908       .  S
O1991     Ni1998   1.902       .  S
O1992     Ni1993   1.942       .  S
Ni1993     O1997   1.913       .  S
Ni1993     O1995   1.921       .  S
O1994     Ni1999   1.940       .  S
C1996      C2005   1.478       .  S
C1996      O1997   1.268       .  A
C2001      C2002   1.210       .  T
C2003      C2004   1.208       .  T
C2005      C2006   1.345       .  D
C2005      H2007   1.087       .  S
C2006      H2008   1.087       .  S
C2009      C2010   1.347       .  D
C2009      H2011   1.087       .  S
C2010      H2012   1.086       .  S
C2013      C2014   1.351       .  D
C2013      H2015   1.088       .  S
C2014      H2016   1.086       .  S
C2017      C2018   1.355       .  D
C2017      H2019   1.087       .  S
C2018      H2020   1.086       .  S
C2021      C2022   1.340       .  D
C2021      H2023   1.087       .  S
C2022      H2024   1.087       .  S
C2025      C2026   1.340       .  D
C2025      H2027   1.087       .  S
C2026      H2028   1.087       .  S
C2029      C2030   1.348       .  D
C2030      H2032   1.086       .  S
C2033      C2034   1.352       .  D
C2033      H2035   1.086       .  S
C2034      H2036   1.086       .  S
C2037      C2038   1.210       .  T
C2039      C2040   1.208       .  T
C2041      C2046   1.392       .  A
C2041      H2047   1.083       .  S
C2042      C2043   1.400       .  A
C2043      H2048   1.083       .  S
C2044      C2045   1.406       .  A
C2045      C2046   1.402       .  A
C2046      H2050   1.083       .  S
C2051      C2052   1.343       .  D
C2051      H2053   1.087       .  S
C2052      H2054   1.087       .  S
C2055      C2056   1.344       .  D
C2055      H2057   1.087       .  S
C2056      H2058   1.087       .  S
C2059      C2060   1.404       .  A
C2059      H2065   1.083   1_565  S
C2060      C2061   1.410       .  A
C2061      C2062   1.405       .  A
C2061      H2066   1.083       .  S
C2062      H2067   1.083       .  S
C2063      C2064   1.412       .  A
C2064      H2068   1.083       .  S
C2069      C2070   1.345       .  D
C2069      H2071   1.086       .  S
C2070      H2072   1.087       .  S
C2073      C2074   1.346       .  D
C2073      H2075   1.087       .  S
C2074      H2076   1.087       .  S
C2077      C2078   1.405       .  A
C2077      C2082   1.392       .  A
C2077      H2083   1.083       .  S
C2079      C2080   1.392       .  A
C2079      H2084   1.083       .  S
C2080      C2081   1.405       .  A
C2080      H2085   1.083       .  S
C2082      H2086   1.083       .  S
C2087      C2088   1.342       .  D
C2087      H2089   1.087       .  S
C2088      H2090   1.087       .  S
C2091      C2092   1.348       .  D
C2091      H2093   1.086       .  S
C2092      H2094   1.088       .  S
C2095      C2096   1.411       .  A
C2095      C2100   1.407       .  A
C2095      H2101   1.083       .  S
C2097      C2098   1.407       .  A
C2097      H2102   1.083       .  S
C2098      C2099   1.410       .  A
C2098      H2103   1.083       .  S
C2100      H2104   1.083       .  S
C2105      C2106   1.352       .  D
C2106      H2108   1.086       .  S
C2109      C2110   1.352       .  D
C2109      H2111   1.087       .  S
C2110      H2112   1.086       .  S
