geometry optimzed in LAMMPS
_audit_creation_date              2020-11-30 
_audit_creation_method            'lammps2cif' 
_symmetry_space_group_name_H-M    'P1' 
_symmetry_Int_Tables_number       1 
_symmetry_cell_setting            triclinic 
loop_ 
_symmetry_equiv_pos_as_xyz 
  x,y,z 
_cell_length_a                    35.81387456 
_cell_length_b                    35.68536618171283 
_cell_length_c                    35.9065226582985 
_cell_angle_alpha                 90.34370536578727 
_cell_angle_beta                  90.01311126527854 
_cell_angle_gamma                 90.16063171543492 
loop_ 
_atom_site_label 
_atom_site_type_symbol 
_atom_site_fract_x 
_atom_site_fract_y 
_atom_site_fract_z 
_atom_site_charge 
C1          C  0.54810748  0.26310665  0.10192461     0.81000
N2          N  0.52208940  0.26370059  0.12960712    -0.77300
C3          C  0.48528824  0.26869341  0.12121121     0.83400
N4          N  0.47446732  0.27246386  0.08509115    -0.77300
C5          C  0.50007981  0.27105121  0.05724408     0.83500
N6          N  0.53656344  0.26659842  0.06616110    -0.79000
C7          C  0.42466711  0.19629696  0.29534530     0.81000
N8          N  0.42299990  0.22304471  0.26862347    -0.77300
C9          C  0.42787140  0.21346566  0.23220682     0.83400
N10         N  0.43366261  0.17693906  0.22264165    -0.77300
C11         C  0.43443234  0.14983034  0.24916407     0.83500
N12         N  0.43051144  0.16008241  0.28543663    -0.79000
C13         C  0.35790022  0.38972230  0.16584444     0.81000
N14         N  0.38416662  0.36232360  0.16628734    -0.77300
C15         C  0.37459678  0.32679695  0.17614156     0.83400
N16         N  0.33847813  0.31865317  0.18479482    -0.77300
C17         C  0.31178663  0.34574721  0.18361837     0.83500
N18         N  0.32200196  0.38111999  0.17441875    -0.79000
C19         C  0.40313207  0.29723631  0.17680525     0.81000
N20         N  0.43046056  0.29681646  0.15059309    -0.77300
C21         C  0.45692505  0.26963608  0.15072047     0.83400
N22         N  0.45586033  0.24251647  0.17711821    -0.77300
C23         C  0.42856664  0.24267306  0.20346808     0.83500
N24         N  0.40224819  0.27011173  0.20327352    -0.79000
O25         O  0.93513451  0.74722075  0.56193790    -0.77700
C26         C  0.02569873  0.76808729  0.64329310     0.83300
O27         O  0.91496366  0.66189353  0.66307745    -0.78800
O28         O  0.94877369  0.77109797  0.74132927    -0.80300
O29         O  0.88716967  0.84124273  0.64484742    -0.80100
O30         O  0.88530021  0.78262248  0.57215614    -0.78700
Zn31       Zn  0.95324144  0.73291283  0.61360847     1.55700
O32         O  0.93596363  0.84412343  0.68322815    -0.80100
Cd33       Cd  0.88215816  0.78556903  0.62943821     1.59700
Cd34       Cd  0.89814423  0.71427702  0.68265523     1.59600
O35         O  0.82936414  0.76685780  0.64389789    -0.80100
O36         O  0.92233102  0.75497569  0.65274888    -1.90600
Cd37       Cd  0.95355448  0.78828131  0.68606691     1.59900
O38         O  0.83972789  0.71748901  0.68005830    -0.80100
O39         O  0.00975682  0.78530816  0.67022834    -0.78700
C40         C  0.93664598  0.65208764  0.63652395     0.83800
C41         C  0.90775757  0.76640042  0.54980797     0.83500
O42         O  0.00696183  0.74855739  0.62002218    -0.77700
C43         C  0.90932159  0.85995859  0.66571027     0.84300
O44         O  0.95254468  0.67648091  0.61619345    -0.77800
C45         C  0.81735428  0.73977198  0.66356062     0.84400
C46         C  0.93271936  0.74324028  0.75682750     0.84700
O47         O  0.91372713  0.71930736  0.73817621    -0.80200
C48         C  0.42805974  0.82670133  0.79111473     0.81000
N49         N  0.42498525  0.86325604  0.78148331    -0.77300
C50         C  0.42029318  0.87360449  0.74550951     0.83400
N51         N  0.41846530  0.84662015  0.71868435    -0.77300
C52         C  0.42196107  0.80981696  0.72769984     0.83500
N53         N  0.42692563  0.79986354  0.76397746    -0.79000
C54         C  0.49394588  0.63677371  0.66011049     0.81000
N55         N  0.53047783  0.64603125  0.66446760    -0.77300
C56         C  0.54133924  0.68228387  0.66881790     0.83400
N57         N  0.51468768  0.70943272  0.67037150    -0.77300
C58         C  0.47796574  0.70043088  0.66601547     0.83500
N59         N  0.46773381  0.66413533  0.66046526    -0.79000
C60         C  0.30285452  0.76681595  0.59646785     0.81000
N61         N  0.32983329  0.76611666  0.62312731    -0.77300
C62         C  0.36564432  0.75735334  0.61399370     0.83400
N63         N  0.37457415  0.74947578  0.57791904    -0.77300
C64         C  0.34795304  0.75050577  0.55089930     0.83500
N65         N  0.31229484  0.75892369  0.56069088    -0.79000
C66         C  0.42145551  0.78125356  0.69796494     0.81000
N67         N  0.39449542  0.78204330  0.67126644    -0.77300
C68         C  0.39466981  0.75654367  0.64294973     0.83400
N69         N  0.42202214  0.73033397  0.64133909    -0.77300
C70         C  0.44916167  0.72951022  0.66772835     0.83500
N71         N  0.44883139  0.75496917  0.69606941    -0.79000
O72         O  0.42456565  0.24777866  0.76685891    -0.77700
C73         C  0.33480173  0.26704742  0.68724350     0.83300
O74         O  0.44957726  0.16220341  0.66761190    -0.78800
O75         O  0.41013612  0.26515249  0.58897284    -0.80300
O76         O  0.47211042  0.34218098  0.68170142    -0.80100
O77         O  0.47116138  0.28797111  0.75838071    -0.78700
Zn78       Zn  0.40730287  0.23167287  0.71557255     1.55700
O79         O  0.42294216  0.34118402  0.64354872    -0.80100
Cd80       Cd  0.47654313  0.28798476  0.70088588     1.59700
Cd81       Cd  0.46436201  0.21454661  0.64834871     1.59600
O82         O  0.53001466  0.27014019  0.68919690    -0.80100
O83         O  0.43810563  0.25463523  0.67732689    -1.90600
Cd84       Cd  0.40603839  0.28537504  0.64327291     1.59900
O85         O  0.52199371  0.21848564  0.65480258    -0.80100
O86         O  0.35030268  0.28385840  0.66003093    -0.78700
C87         C  0.42753528  0.15149363  0.69328982     0.83800
C88         C  0.44953704  0.26976360  0.77993969     0.83500
O89         O  0.35368870  0.24697258  0.70959288    -0.77700
C90         C  0.44957932  0.35861216  0.65975357     0.84300
O91         O  0.40930291  0.17485516  0.71312988    -0.77800
C92         C  0.54304843  0.24203053  0.67158770     0.84400
C93         C  0.42855037  0.23865148  0.57358012     0.84700
O94         O  0.45018536  0.21750307  0.59229757    -0.80200
C95         C  0.05641185  0.26904649  0.73216661     0.81000
N96         N  0.04484527  0.26998805  0.76818375    -0.77300
C97         C  0.00804526  0.26772663  0.77712507     0.83400
N98         N  0.98255414  0.26421478  0.74933869    -0.77300
C99         C  0.99362199  0.26376828  0.71319077     0.83500
N100        N  0.03047352  0.26648591  0.70461837    -0.79000
C101        C  0.93397333  0.32659508  0.53519858     0.81000
N102        N  0.93195324  0.30102304  0.56302766    -0.77300
C103        C  0.93827483  0.31187467  0.59885132     0.83400
N104        N  0.94594848  0.34837712  0.60679417    -0.77300
C105        C  0.94723571  0.37435410  0.57931899     0.83500
N106        N  0.94158758  0.36299459  0.54359412    -0.79000
C107        C  0.86419736  0.14026060  0.66824073     0.81000
N108        N  0.89163261  0.16662326  0.66612108    -0.77300
C109        C  0.88290421  0.20331315  0.66099887     0.83400
N110        N  0.84663544  0.21390567  0.65859504    -0.77300
C111        C  0.81898177  0.18801865  0.66121322     0.83500
N112        N  0.82799725  0.15143199  0.66592437    -0.79000
C113        C  0.93857618  0.28418507  0.62881595     0.81000
N114        N  0.96532195  0.28608179  0.65558202    -0.77300
C115        C  0.96568005  0.26082057  0.68367170     0.83400
N116        N  0.93908863  0.23371410  0.68515417    -0.77300
C117        C  0.91234970  0.23163770  0.65844870     0.83500
N118        N  0.91202438  0.25697810  0.63033240    -0.79000
O119        O  0.92093349  0.28409947  0.06511604    -0.77700
C120        C  0.82818858  0.25708712  0.14134897     0.83300
O121        O  0.93761013  0.36639870  0.16904083    -0.78800
O122        O  0.90354129  0.25482716  0.24196798    -0.80300
O123        O  0.96667436  0.18650738  0.14389343    -0.80100
O124        O  0.97038471  0.24776362  0.07354812    -0.78700
Zn125      Zn  0.90069205  0.29576730  0.11634844     1.55700
O126        O  0.91655527  0.18272031  0.18054278    -0.80100
Cd127      Cd  0.97217649  0.24265210  0.13086079     1.59700
Cd128      Cd  0.95464434  0.31317876  0.18534496     1.59600
O129        O  0.02472828  0.26092279  0.14773475    -0.80100
O130        O  0.93117590  0.27256996  0.15442351    -1.90600
Cd131      Cd  0.89927203  0.23845607  0.18598059     1.59900
O132        O  0.01269497  0.31075181  0.18321588    -0.80100
O133        O  0.84334231  0.24044249  0.16886973    -0.78700
C134        C  0.91544410  0.37657057  0.14324186     0.83800
C135        C  0.94838851  0.26548989  0.05209040     0.83500
O136        O  0.84740076  0.27770100  0.11963555    -0.77700
C137        C  0.94358585  0.16733242  0.16305674     0.84300
O138        O  0.89990520  0.35234860  0.12201141    -0.77800
C139        C  0.03584526  0.28842742  0.16772339     0.84400
C140        C  0.92001514  0.28233035  0.25810957     0.84700
O141        O  0.93933319  0.30613755  0.24006424    -0.80200
C142        C  0.99265639  0.88785443  0.15624511     0.81000
N143        N  0.96569104  0.86094840  0.15712912    -0.77300
C144        C  0.97529169  0.82410248  0.15728538     0.83400
N145        N  0.01190895  0.81423886  0.15765255    -0.77300
C146        C  0.03899910  0.84099805  0.15850589     0.83500
N147        N  0.02914995  0.87770498  0.15723597    -0.79000
C148        C  0.80073025  0.76181530  0.22874588     0.81000
N149        N  0.82784670  0.76142555  0.20226789    -0.77300
C150        C  0.86434000  0.76530348  0.21220451     0.83400
N151        N  0.87368184  0.76895702  0.24882909    -0.77300
C152        C  0.84673269  0.76804418  0.27557437     0.83500
N153        N  0.81048026  0.76513191  0.26510157    -0.79000
C154        C  0.92181119  0.69862758  0.03381465     0.81000
N155        N  0.91449065  0.66226184  0.04222218    -0.77300
C156        C  0.90983567  0.65113884  0.07802277     0.83400
N157        N  0.91123735  0.67739228  0.10562015    -0.77300
C158        C  0.91867097  0.71388113  0.09770494     0.83500
N159        N  0.92432941  0.72442061  0.06176526    -0.79000
C160        C  0.91926805  0.74188200  0.12788334     0.81000
N161        N  0.89304719  0.74063870  0.15521789    -0.77300
C162        C  0.89337301  0.76634877  0.18328928     0.83400
N163        N  0.92007279  0.79352249  0.18391519    -0.77300
C164        C  0.94633284  0.79494796  0.15660041     0.83500
N165        N  0.94586212  0.76910262  0.12863518    -0.79000
O166        O  0.32782186  0.75360516  0.18337581    -0.77700
C167        C  0.40660102  0.66609743  0.14975491     0.83300
O168        O  0.42856626  0.77407280  0.26436654    -0.78800
O169        O  0.50692403  0.74113008  0.15676910    -0.80300
O170        O  0.40736691  0.80544921  0.08810951    -0.80100
O171        O  0.33609686  0.80461210  0.14931367    -0.78700
Zn172      Zn  0.37989449  0.73466542  0.19421244     1.55700
O173        O  0.45023187  0.76041203  0.08431869    -0.80100
Cd174      Cd  0.39349307  0.80836534  0.14414817     1.59700
Cd175      Cd  0.44853036  0.79041989  0.21325978     1.59600
O176        O  0.40911957  0.86063037  0.16444286    -0.80100
O177        O  0.41799724  0.76737733  0.17259422    -1.90600
Cd178      Cd  0.45185289  0.73871152  0.13813803     1.59900
O179        O  0.44735827  0.84857996  0.21170781    -0.80100
O180        O  0.43445898  0.68298762  0.13523693    -0.78700
C181        C  0.40363516  0.75081839  0.27470921     0.83800
C182        C  0.31460679  0.78150755  0.16584060     0.83500
O183        O  0.38418597  0.68271281  0.17195120    -0.77700
C184        C  0.43048948  0.78589971  0.06924374     0.84300
O185        O  0.38415694  0.73259543  0.25091797    -0.77800
C186        C  0.43021699  0.87173637  0.19095043     0.84400
C187        C  0.52224591  0.75572213  0.18553300     0.84700
O188        O  0.50357494  0.77405160  0.20967563    -0.80200
C189        C  0.61863474  0.75304259  0.22940914    -0.13600
C190        C  0.64171140  0.75878767  0.19826996     0.16800
C191        C  0.62509502  0.76005960  0.16257833     0.03100
C192        C  0.58624050  0.75675597  0.15886181    -0.12100
C193        C  0.56319950  0.75314184  0.19024635    -0.03100
C194        C  0.57977901  0.75081604  0.22579254     0.02300
C195        C  0.68292092  0.76196722  0.20384467     0.09200
N196        N  0.64694312  0.76664345  0.12996014     0.65500
H197        H  0.57393396  0.75905716  0.13146919     0.18400
N198        N  0.55763071  0.74537005  0.25846083     0.76000
H199        H  0.63078575  0.74995060  0.25672466     0.10000
C200        C  0.69807863  0.78510201  0.23218078     0.03700
C201        C  0.73635597  0.78426543  0.23969080    -0.05100
C202        C  0.76062867  0.76168342  0.21872910    -0.23500
C203        C  0.74594006  0.73970225  0.18942143     0.12900
C204        C  0.70732174  0.73952941  0.18262007    -0.12600
N205        N  0.67515173  0.81028639  0.25316841     0.64600
H206        H  0.74724722  0.80200836  0.26168945     0.12400
N207        N  0.76946410  0.71582711  0.16768590     0.61200
H208        H  0.69635341  0.72078654  0.16159340     0.08600
O209        O  0.55562497  0.77103861  0.28270102    -0.40300
O210        O  0.54532589  0.71310458  0.26590027    -0.39400
O211        O  0.65013467  0.74105072  0.10577160    -0.39400
O212        O  0.65631322  0.79971447  0.12186525    -0.37100
O213        O  0.77780962  0.68374019  0.17962518    -0.38000
O214        O  0.77675646  0.72422713  0.13438142    -0.34200
O215        O  0.67076613  0.80515150  0.28764242    -0.35600
O216        O  0.66617227  0.84136305  0.23924255    -0.39900
C217        C  0.14319792  0.84330960  0.17890126    -0.13600
C218        C  0.15546383  0.81127653  0.15979547     0.16800
C219        C  0.12911180  0.78800115  0.14188677     0.03100
C220        C  0.09116737  0.79760170  0.14240708    -0.12100
C221        C  0.07892846  0.83032040  0.16058403    -0.03100
C222        C  0.10531096  0.85280373  0.17974283     0.02300
C223        C  0.19585157  0.80238966  0.15966215     0.09200
N224        N  0.14068300  0.75533803  0.12185806     0.65500
H225        H  0.07139770  0.77997417  0.12764604     0.18400
N226        N  0.09387729  0.88411484  0.20194908     0.76000
H227        H  0.16310576  0.86065882  0.19380941     0.10000
C228        C  0.22173900  0.82666159  0.14283994     0.03700
C229        C  0.25994524  0.81909037  0.14499132    -0.05100
C230        C  0.27345022  0.78779507  0.16445820    -0.23500
C231        C  0.24726294  0.76379491  0.18204569     0.12900
C232        C  0.20886001  0.77098952  0.17895905    -0.12600
N233        N  0.20956941  0.85926994  0.12344532     0.64600
H234        H  0.27907955  0.83816391  0.13144450     0.12400
N235        N  0.25898269  0.73309967  0.20457920     0.61200
H236        H  0.18916319  0.75278713  0.19290123     0.08600
O237        O  0.10232101  0.91691753  0.19201823    -0.40300
O238        O  0.08134121  0.87867565  0.23432100    -0.39400
O239        O  0.13415292  0.72328695  0.13503728    -0.39400
O240        O  0.15187753  0.75833137  0.08869087    -0.37100
O241        O  0.26790751  0.73898848  0.23811826    -0.38000
O242        O  0.25343996  0.69994046  0.19346459    -0.34200
O243        O  0.21448805  0.89125504  0.13782831    -0.35600
O244        O  0.19946285  0.85655603  0.08987578    -0.39900
C245        C  0.99200948  0.99163960  0.13364095    -0.13600
C246        C  0.96838355  0.00599940  0.16158373     0.16800
C247        C  0.95047141  0.98034105  0.18572816     0.03100
C248        C  0.95724465  0.94176206  0.18220038    -0.12100
C249        C  0.98263827  0.92801114  0.15583656    -0.03100
C250        C  0.99987540  0.95326771  0.13115008     0.02300
C251        C  0.96224988  0.04748618  0.16425660     0.09200
N252        N  0.92688168  0.99294940  0.21531048     0.65500
H253        H  0.94408162  0.92265317  0.20149854     0.18400
N254        N  0.02481490  0.94030300  0.10281363     0.76000
H255        H  0.00441389  0.01021660  0.11345849     0.10000
C256        C  0.99227588  0.07322653  0.16157589     0.03700
C257        C  0.98537040  0.11183096  0.16128521    -0.05100
C258        C  0.94903631  0.12606631  0.16479740    -0.23500
C259        C  0.91906382  0.10056267  0.16848488     0.12900
C260        C  0.92577543  0.06179345  0.16743041    -0.12600
N261        N  0.03017286  0.06080261  0.15984274     0.64600
H262        H  0.00881485  0.13084362  0.15895401     0.12400
N263        N  0.88143388  0.11341507  0.17142594     0.61200
H264        H  0.90218864  0.04292795  0.16813371     0.08600
O265        O  0.05929672  0.94714801  0.10555899    -0.40300
O266        O  0.01180294  0.92833214  0.07231177    -0.39400
O267        O  0.89266276  0.98440163  0.21498833    -0.39400
O268        O  0.94139761  0.00549927  0.24488995    -0.37100
O269        O  0.86165226  0.11593684  0.14247751    -0.38000
O270        O  0.86616679  0.11558179  0.20303194    -0.34200
O271        O  0.04950005  0.06758019  0.13125748    -0.35600
O272        O  0.04609530  0.04963043  0.18907195    -0.39900
C273        C  0.90902800  0.54399019  0.07251009    -0.13600
C274        C  0.89544154  0.53430567  0.10784152     0.16800
C275        C  0.88505880  0.56332217  0.13263429     0.03100
C276        C  0.88956062  0.60096345  0.12227721    -0.12100
C277        C  0.90384543  0.61073458  0.08710962    -0.03100
C278        C  0.91297753  0.58150659  0.06184305     0.02300
C279        C  0.89624301  0.49410457  0.11928340     0.09200
N280        N  0.86939292  0.55507834  0.16827654     0.65500
H281        H  0.88162100  0.62260231  0.14191518     0.18400
N282        N  0.92818812  0.58911301  0.02586705     0.76000
H283        H  0.91820465  0.52231708  0.05350088     0.10000
C284        C  0.88094463  0.46549066  0.09661271     0.03700
C285        C  0.88699274  0.42774509  0.10535061    -0.05100
C286        C  0.90791872  0.41727850  0.13681354    -0.23500
C287        C  0.92188946  0.44605037  0.16039875     0.12900
C288        C  0.91630797  0.48384917  0.15125723    -0.12600
N289        N  0.85900988  0.47425472  0.06457186     0.64600
H290        H  0.87542921  0.40656727  0.08700308     0.12400
N291        N  0.94209614  0.43763373  0.19361522     0.61200
H292        H  0.92878746  0.50525389  0.16868950     0.08600
O293        O  0.90822775  0.58435905  0.99725054    -0.40300
O294        O  0.96287539  0.59424617  0.02230312    -0.39400
O295        O  0.88714466  0.56378037  0.19744850    -0.39400
O296        O  0.83536217  0.54615431  0.17061203    -0.37100
O297        O  0.97724389  0.44017099  0.19380491    -0.38000
O298        O  0.92475634  0.43474352  0.22405585    -0.34200
O299        O  0.87139806  0.46674154  0.03249183    -0.35600
O300        O  0.82491705  0.48212493  0.06856098    -0.39900
C301        C  0.90293549  0.28125623  0.44381794    -0.13600
C302        C  0.92844684  0.29740989  0.41874713     0.16800
C303        C  0.95662043  0.32139137  0.43289397     0.03100
C304        C  0.95740303  0.33055487  0.47074672    -0.12100
C305        C  0.93164772  0.31500526  0.49566039    -0.03100
C306        C  0.90476705  0.28935031  0.48214794     0.02300
C307        C  0.92334464  0.29256318  0.37775818     0.09200
N308        N  0.98512993  0.33622468  0.40922768     0.65500
H309        H  0.97890048  0.34939102  0.48087569     0.18400
N310        N  0.87781371  0.27303898  0.50654081     0.76000
H311        H  0.88069779  0.26348211  0.43356694     0.10000
C312        C  0.91904182  0.25709422  0.36057056     0.03700
C313        C  0.91600035  0.25436749  0.32162764    -0.05100
C314        C  0.91795157  0.28646337  0.29920248    -0.23500
C315        C  0.92062643  0.32198777  0.31660135     0.12900
C316        C  0.92258641  0.32469326  0.35538568    -0.12600
N317        N  0.91970880  0.22346268  0.38194245     0.64600
H318        H  0.91404651  0.22692037  0.30884394     0.12400
N319        N  0.92123502  0.35575664  0.29536947     0.61200
H320        H  0.92405935  0.35220007  0.36806782     0.08600
O321        O  0.88144614  0.23940462  0.51652613    -0.40300
O322        O  0.84747158  0.28984581  0.51271987    -0.39400
O323        O  0.98917166  0.37123517  0.40634652    -0.39400
O324        O  0.00985515  0.31467721  0.39625118    -0.37100
O325        O  0.89138771  0.37385711  0.29080146    -0.38000
O326        O  0.95210384  0.37120477  0.28808969    -0.34200
O327        O  0.89026171  0.20427877  0.38530349    -0.35600
O328        O  0.95065256  0.20937948  0.39101616    -0.39900
C329        C  0.95147744  0.26215904  0.86737846    -0.13600
C330        C  0.97785204  0.27487869  0.89345396     0.16800
C331        C  0.01326051  0.28652803  0.88095081     0.03100
C332        C  0.02233839  0.28373592  0.84318816    -0.12100
C333        C  0.99637375  0.27025917  0.81687520    -0.03100
C334        C  0.96021935  0.26006758  0.82934566     0.02300
C335        C  0.96950701  0.27236859  0.93383489     0.09200
N336        N  0.04004157  0.30211371  0.90625128     0.65500
H337        H  0.04981308  0.29280600  0.83448464     0.18400
N338        N  0.93236546  0.24636755  0.80418381     0.76000
H339        H  0.92434762  0.25268215  0.87669470     0.10000
C340        C  0.93849375  0.29039656  0.94991408     0.03700
C341        C  0.93162116  0.28694811  0.98813938    -0.05100
C342        C  0.95525095  0.26567612  0.01114520    -0.23500
C343        C  0.98570602  0.24662014  0.99452736     0.12900
C344        C  0.99246966  0.25018833  0.95632376    -0.12600
N345        N  0.91450803  0.31346854  0.92808144     0.64600
H346        H  0.90806197  0.30178836  0.99987993     0.12400
N347        N  0.01010169  0.22340935  0.01576205     0.61200
H348        H  0.01575365  0.23530747  0.94406725     0.08600
O349        O  0.90615587  0.26765446  0.79424885    -0.40300
O350        O  0.93025172  0.21171185  0.79729869    -0.39400
O351        O  0.07081939  0.28577563  0.91127936    -0.39400
O352        O  0.03552383  0.33495111  0.91865145    -0.37100
O353        O  0.00411520  0.18858106  0.01711329    -0.38000
O354        O  0.04111017  0.23627339  0.02665419    -0.34200
O355        O  0.88152653  0.30286892  0.92139186    -0.35600
O356        O  0.92387659  0.34687334  0.92142910    -0.39900
C357        C  0.23346105  0.30054316  0.68610404    -0.13600
C358        C  0.21585349  0.27147710  0.70551658     0.16800
C359        C  0.23724759  0.24145010  0.71883890     0.03100
C360        C  0.27578614  0.24081186  0.71271423    -0.12100
C361        C  0.29379636  0.26971140  0.69311429    -0.03100
C362        C  0.27216694  0.29996342  0.67983680     0.02300
C363        C  0.17506526  0.27257950  0.71162397     0.09200
N364        N  0.22008134  0.21110809  0.73825379     0.65500
H365        H  0.29157126  0.21718210  0.72294131     0.18400
N366        N  0.28912565  0.33095954  0.66128258     0.76000
H367        H  0.21712935  0.32387335  0.67605815     0.10000
C368        C  0.15992687  0.28777602  0.74449878     0.03700
C369        C  0.12129049  0.28687002  0.75027497    -0.05100
C370        C  0.09704372  0.27085600  0.72368732    -0.23500
C371        C  0.11243576  0.25614315  0.69037001     0.12900
C372        C  0.15116697  0.25725271  0.68463812    -0.12600
N373        N  0.18350220  0.30412103  0.77233576     0.64600
H374        H  0.11030943  0.29865234  0.77585121     0.12400
N375        N  0.08951970  0.23827836  0.66290907     0.61200
H376        H  0.16274205  0.24530103  0.65939222     0.08600
O377        O  0.30018554  0.35885468  0.68006695    -0.40300
O378        O  0.28676563  0.33344932  0.62632424    -0.39400
O379        O  0.20885221  0.18278272  0.72023720    -0.39400
O380        O  0.22275073  0.20942549  0.77323862    -0.37100
O381        O  0.08280668  0.25475353  0.63265243    -0.38000
O382        O  0.08138425  0.20402969  0.66620336    -0.34200
O383        O  0.18596433  0.33931468  0.77492548    -0.35600
O384        O  0.19589502  0.28403104  0.79832615    -0.39900
C385        C  0.71426420  0.18778685  0.64530956    -0.13600
C386        C  0.70311854  0.22021182  0.66464295     0.16800
C387        C  0.73083412  0.24292144  0.68169024     0.03100
C388        C  0.76866010  0.23306824  0.67828709    -0.12100
C389        C  0.77935550  0.19968237  0.66034689    -0.03100
C390        C  0.75164192  0.17692034  0.64386046     0.02300
C391        C  0.66227941  0.22771495  0.66789557     0.09200
N392        N  0.72113026  0.27401075  0.70512079     0.65500
H393        H  0.78957016  0.25025692  0.69198473     0.18400
N394        N  0.76085302  0.14243682  0.62570699     0.76000
H395        H  0.69357912  0.17012595  0.63183653     0.10000
C396        C  0.64598753  0.26275007  0.65936943     0.03700
C397        C  0.60711022  0.26714550  0.66203548    -0.05100
C398        C  0.58387475  0.23675608  0.67087414    -0.23500
C399        C  0.60001513  0.20186566  0.67900432     0.12900
C400        C  0.63879495  0.19785759  0.67819147    -0.12600
N401        N  0.66788274  0.29325127  0.64549540     0.64600
H402        H  0.59479633  0.29393668  0.65523757     0.12400
N403        N  0.57745014  0.17043437  0.68908097     0.61200
H404        H  0.65065263  0.17094532  0.68531635     0.08600
O405        O  0.76858978  0.14233247  0.59143620    -0.40300
O406        O  0.75417874  0.11183964  0.64187395    -0.39400
O407        O  0.70251359  0.26839706  0.73441128    -0.39400
O408        O  0.73711100  0.30524119  0.70066642    -0.37100
O409        O  0.57192830  0.14444253  0.66572635    -0.38000
O410        O  0.56911356  0.16536774  0.72281927    -0.34200
O411        O  0.68512340  0.28958616  0.61504763    -0.35600
O412        O  0.66423117  0.32553093  0.65958673    -0.39900
C413        C  0.36516571  0.71865240  0.36887916    -0.13600
C414        C  0.38269072  0.74419453  0.39307827     0.16800
C415        C  0.40761845  0.77078485  0.37850393     0.03100
C416        C  0.41479511  0.77148647  0.34023713    -0.12100
C417        C  0.39688155  0.74643872  0.31547648    -0.03100
C418        C  0.37187783  0.71958137  0.33036826     0.02300
C419        C  0.37362225  0.74383173  0.43332278     0.09200
N420        N  0.42408696  0.79878847  0.40196321     0.65500
H421        H  0.43360818  0.79278129  0.32985628     0.18400
N422        N  0.35280989  0.69323659  0.30699822     0.76000
H423        H  0.34590680  0.69811739  0.37993365     0.10000
C424        C  0.33825093  0.75499269  0.44585748     0.03700
C425        C  0.33040547  0.75597851  0.48398286    -0.05100
C426        C  0.35740747  0.74561712  0.51059562    -0.23500
C427        C  0.39265917  0.73303626  0.49775180     0.12900
C428        C  0.40062231  0.73276630  0.45936772    -0.12600
N429        N  0.31026660  0.76697265  0.42020971     0.64600
H430        H  0.30366557  0.76563027  0.49239484     0.12400
N431        N  0.42030464  0.71931896  0.52290334     0.61200
H432        H  0.42759497  0.72355417  0.44988129     0.08600
O433        O  0.31891637  0.69847961  0.29902174    -0.40300
O434        O  0.36742026  0.66175022  0.30043589    -0.39400
O435        O  0.45847321  0.79732434  0.40942522    -0.39400
O436        O  0.40597293  0.82811609  0.40964135    -0.37100
O437        O  0.41889426  0.68561274  0.53326224    -0.38000
O438        O  0.44955982  0.73822965  0.52878788    -0.34200
O439        O  0.28490131  0.74444446  0.41025332    -0.35600
O440        O  0.30707677  0.80136248  0.41294445    -0.39900
C441        C  0.49208909  0.45572200  0.65416563    -0.13600
C442        C  0.46012198  0.47840837  0.65567068     0.16800
C443        C  0.42460032  0.46123711  0.65386451     0.03100
C444        C  0.42168353  0.42200726  0.65306209    -0.12100
C445        C  0.45373322  0.39944675  0.65433362    -0.03100
C446        C  0.48920925  0.41665245  0.65373300     0.02300
C447        C  0.46517708  0.51970918  0.65899226     0.09200
N448        N  0.39120453  0.48302208  0.65477110     0.65500
H449        H  0.39432668  0.40923655  0.65340141     0.18400
N450        N  0.52261376  0.39487291  0.65176881     0.76000
H451        H  0.51945680  0.46839325  0.65343227     0.10000
C452        C  0.48930621  0.53495539  0.68629193     0.03700
C453        C  0.49856747  0.57297480  0.68559695    -0.05100
C454        C  0.48295636  0.59690384  0.65907781    -0.23500
C455        C  0.45717533  0.58234669  0.63301843     0.12900
C456        C  0.44889348  0.54382563  0.63277857    -0.12600
N457        N  0.50399330  0.51227072  0.71551120     0.64600
H458        H  0.51745831  0.58403306  0.70646857     0.12400
N459        N  0.44097040  0.60581713  0.60529076     0.61200
H460        H  0.43090929  0.53262420  0.61127900     0.08600
O461        O  0.54478045  0.39457840  0.67908601    -0.40300
O462        O  0.53323013  0.38202355  0.62072400    -0.39400
O463        O  0.37131310  0.48529289  0.62586336    -0.39400
O464        O  0.37794402  0.49333349  0.68571363    -0.37100
O465        O  0.45871499  0.61242932  0.57568567    -0.38000
O466        O  0.40701206  0.61484433  0.60767488    -0.34200
O467        O  0.53863466  0.50612272  0.71714326    -0.35600
O468        O  0.48364974  0.50447013  0.74310029    -0.39900
C469        C  0.41616013  0.78196589  0.88661654    -0.13600
C470        C  0.43577106  0.80748581  0.90927348     0.16800
C471        C  0.45514424  0.83731288  0.89252298     0.03100
C472        C  0.45319968  0.84223624  0.85390152    -0.12100
C473        C  0.43277030  0.81735536  0.83112069    -0.03100
C474        C  0.41485157  0.78639953  0.84778391     0.02300
C475        C  0.43489891  0.80312076  0.95036388     0.09200
N476        N  0.47584607  0.86360573  0.91452654     0.65500
H477        H  0.46737791  0.86602913  0.84171097     0.18400
N478        N  0.39368841  0.76030400  0.82601793     0.76000
H479        H  0.40146185  0.75871986  0.89921561     0.10000
C480        C  0.40173456  0.80914731  0.97055086     0.03700
C481        C  0.40118321  0.80401122  0.00917669    -0.05100
C482        C  0.43324768  0.79241099  0.02846659    -0.23500
C483        C  0.46666781  0.78676926  0.00821877     0.12900
C484        C  0.46724534  0.79230146  0.96950299    -0.12600
N485        N  0.36841028  0.82087346  0.95217031     0.64600
H486        H  0.37527122  0.80852426  0.02404493     0.12400
N487        N  0.50047668  0.77648976  0.02660393     0.61200
H488        H  0.49294523  0.78783015  0.95427214     0.08600
O489        O  0.35863423  0.76335777  0.82445027    -0.40300
O490        O  0.40899777  0.73064300  0.81443435    -0.39400
O491        O  0.51083115  0.86038431  0.91702924    -0.39400
O492        O  0.46040292  0.89343560  0.92547092    -0.37100
O493        O  0.51094131  0.74275964  0.02602559    -0.38000
O494        O  0.52299160  0.80169908  0.03706351    -0.34200
O495        O  0.34326541  0.79714450  0.94475068    -0.35600
O496        O  0.36137697  0.85537095  0.94942469    -0.39900
C497        C  0.43027699  0.96745747  0.69580344    -0.13600
C498        C  0.42030468  0.99258578  0.72432402     0.16800
C499        C  0.40833201  0.97831441  0.75877637     0.03100
C500        C  0.40742453  0.93956319  0.76452399    -0.12100
C501        C  0.41830965  0.91419514  0.73639230    -0.03100
C502        C  0.42933369  0.92859868  0.70144819     0.02300
C503        C  0.42235807  0.03355006  0.71749217     0.09200
N504        N  0.39868732  0.00288215  0.78881831     0.65500
H505        H  0.39876823  0.92936918  0.79151042     0.18400
N506        N  0.44119613  0.90443832  0.67188923     0.76000
H507        H  0.43903057  0.97809400  0.66902142     0.10000
C508        C  0.45612675  0.05070011  0.70669699     0.03700
C509        C  0.45689030  0.08890372  0.69821134    -0.05100
C510        C  0.42456462  0.11090238  0.70101778    -0.23500
C511        C  0.39076556  0.09385814  0.71210181     0.12900
C512        C  0.38990119  0.05542030  0.72012045    -0.12600
N513        N  0.49019544  0.02995363  0.70562945     0.64600
H514        H  0.48319802  0.10166302  0.69042690     0.12400
N515        N  0.35673245  0.11465472  0.71321091     0.61200
H516        H  0.36362400  0.04241921  0.72751642     0.08600
O517        O  0.47559706  0.90064680  0.66534011    -0.40300
O518        O  0.41763892  0.89263463  0.64842716    -0.39400
O519        O  0.36486888  0.00698129  0.79776024    -0.39400
O520        O  0.42394098  0.01516916  0.81017958    -0.37100
O521        O  0.33847865  0.11954882  0.68357924    -0.38000
O522        O  0.34197499  0.12262213  0.74415335    -0.34200
O523        O  0.50610300  0.02385343  0.67484377    -0.35600
O524        O  0.50741738  0.02344059  0.73555235    -0.39900
C525        C  0.12599951  0.74557026  0.61553804    -0.13600
C526        C  0.14543300  0.77620600  0.63040144     0.16800
C527        C  0.12564805  0.80431888  0.64964425     0.03100
C528        C  0.08676559  0.80115414  0.65402919    -0.12100
C529        C  0.06702400  0.77044695  0.63892589    -0.03100
C530        C  0.08730024  0.74238788  0.61961558     0.02300
C531        C  0.18618226  0.77844420  0.62396823     0.09200
N532        N  0.14446078  0.83681331  0.66364978     0.65500
H533        H  0.07192094  0.82318855  0.66859459     0.18400
N534        N  0.06941094  0.70942914  0.60553961     0.76000
H535        H  0.14108604  0.72377939  0.60081219     0.10000
C536        C  0.21210279  0.76718912  0.65113595     0.03700
C537        C  0.25025574  0.76546943  0.64231880    -0.05100
C538        C  0.26311618  0.77419093  0.60634136    -0.23500
C539        C  0.23690951  0.78670421  0.57956882     0.12900
C540        C  0.19891817  0.78845428  0.58859204    -0.12600
N541        N  0.19981296  0.75502167  0.68693966     0.64600
H542        H  0.26954718  0.75538129  0.66316138     0.12400
N543        N  0.24820690  0.79788221  0.54307708     0.61200
H544        H  0.17907160  0.79720845  0.56763238     0.08600
O545        O  0.06734423  0.68083285  0.62592147    -0.40300
O546        O  0.06285865  0.70641463  0.57111433    -0.39400
O547        O  0.14818493  0.86510677  0.64305743    -0.39400
O548        O  0.15119547  0.83969887  0.69803463    -0.37100
O549        O  0.23461194  0.78150974  0.51489828    -0.38000
O550        O  0.26619129  0.82803099  0.53894048    -0.34200
O551        O  0.18933803  0.72153338  0.69123258    -0.35600
O552        O  0.20559803  0.77545295  0.71515868    -0.39900
C553        C  0.93308591  0.70063026  0.85363057    -0.13600
C554        C  0.92978099  0.73263136  0.87638681     0.16800
C555        C  0.93109247  0.76830257  0.85966703     0.03100
C556        C  0.93387409  0.77132973  0.82073511    -0.12100
C557        C  0.93489620  0.73916973  0.79790473    -0.03100
C558        C  0.93539660  0.70359925  0.81482792     0.02300
C559        C  0.92548524  0.72755172  0.91737612     0.09200
N560        N  0.92767831  0.80168357  0.88156591     0.65500
H561        H  0.93343852  0.79873352  0.80832845     0.18400
N562        N  0.93940342  0.67015896  0.79310413     0.76000
H563        H  0.93387331  0.67324291  0.86600358     0.10000
C564        C  0.89784235  0.70328479  0.93159018     0.03700
C565        C  0.89748438  0.69427468  0.96943364    -0.05100
C566        C  0.92359029  0.70993120  0.99419502    -0.23500
C567        C  0.95026672  0.73557598  0.98049996     0.12900
C568        C  0.95121508  0.74398988  0.94225114    -0.12600
N569        N  0.86938672  0.68805877  0.90796515     0.64600
H570        H  0.87626426  0.67537960  0.97960317     0.12400
N571        N  0.97816668  0.75121978  0.00448570     0.61200
H572        H  0.97296755  0.76203021  0.93182130     0.08600
O573        O  0.91146508  0.64922169  0.78763188    -0.40300
O574        O  0.97166491  0.65816300  0.78560433    -0.39400
O575        O  0.95516333  0.82368683  0.88463443    -0.39400
O576        O  0.89584761  0.81220880  0.89237100    -0.37100
O577        O  0.00654793  0.73210415  0.01273512    -0.38000
O578        O  0.97740009  0.78567826  0.01251821    -0.34200
O579        O  0.86814046  0.65322203  0.90183648    -0.35600
O580        O  0.84207523  0.70825433  0.89875414    -0.39900
C581        C  0.91183750  0.96211791  0.69920311    -0.13600
C582        C  0.89182280  0.97983182  0.67075705     0.16800
C583        C  0.87795952  0.95815064  0.64084152     0.03100
C584        C  0.88363039  0.91934307  0.64023334    -0.12100
C585        C  0.90381150  0.90129932  0.66855296    -0.03100
C586        C  0.91798208  0.92324695  0.69836848     0.02300
C587        C  0.88509186  0.02084167  0.67289502     0.09200
N588        N  0.85950936  0.97533320  0.61001210     0.65500
H589        H  0.87301373  0.90341312  0.61674573     0.18400
N590        N  0.93750562  0.90651212  0.72868087     0.76000
H591        H  0.92239061  0.97852055  0.72240779     0.10000
C592        C  0.84879568  0.03530400  0.67706606     0.03700
C593        C  0.84298964  0.07404586  0.67604838    -0.05100
C594        C  0.87285370  0.09941057  0.67160040    -0.23500
C595        C  0.90955550  0.08472509  0.66933118     0.12900
C596        C  0.91522641  0.04578064  0.66972171    -0.12600
N597        N  0.81763441  0.01106457  0.68363322     0.64600
H598        H  0.81475143  0.08416970  0.67919391     0.12400
N599        N  0.94144476  0.10866024  0.66643389     0.61200
H600        H  0.94329451  0.03492150  0.66699806     0.08600
O601        O  0.92034855  0.89993193  0.75863810    -0.40300
O602        O  0.97271894  0.90559667  0.72826678    -0.39400
O603        O  0.87803370  0.99556397  0.58796164    -0.39400
O604        O  0.82713377  0.96469027  0.60084866    -0.37100
O605        O  0.95918731  0.11780922  0.69547885    -0.38000
O606        O  0.95564319  0.11489083  0.63490880    -0.34200
O607        O  0.81453779  0.99510527  0.71475208    -0.35600
O608        O  0.78994823  0.01173709  0.66190157    -0.39900
C609        C  0.91388591  0.75392253  0.44399695    -0.13600
C610        C  0.88556763  0.77804677  0.43203152     0.16800
C611        C  0.86507861  0.79849500  0.45862054     0.03100
C612        C  0.87330814  0.79483949  0.49653273    -0.12100
C613        C  0.90127785  0.77017416  0.50894815    -0.03100
C614        C  0.92152877  0.74935820  0.48201420     0.02300
C615        C  0.87507883  0.77810221  0.39213814     0.09200
N616        N  0.83545463  0.82274416  0.44754754     0.65500
H617        H  0.85715969  0.81105981  0.51631547     0.18400
N618        N  0.94813693  0.72165565  0.49265270     0.76000
H619        H  0.92896635  0.73720134  0.42376383     0.10000
C620        C  0.89892707  0.79273073  0.36463230     0.03700
C621        C  0.88951069  0.78902811  0.32683845    -0.05100
C622        C  0.85636821  0.77084394  0.31582856    -0.23500
C623        C  0.83249334  0.75625485  0.34374742     0.12900
C624        C  0.84194098  0.76024009  0.38137614    -0.12600
N625        N  0.93245191  0.81200455  0.37477079     0.64600
H626        H  0.90800751  0.80080472  0.30611845     0.12400
N627        N  0.79970178  0.73524307  0.33448037     0.61200
H628        H  0.82392553  0.74808027  0.40231605     0.08600
O629        O  0.98257145  0.72830692  0.48916660    -0.40300
O630        O  0.93726693  0.68859497  0.49879058    -0.39400
O631        O  0.80213241  0.81129607  0.44923265    -0.39400
O632        O  0.84187830  0.85723597  0.44332626    -0.37100
O633        O  0.80248711  0.70079677  0.32686226    -0.38000
O634        O  0.76790167  0.74910744  0.34062196    -0.34200
O635        O  0.96345164  0.79551012  0.37206981    -0.35600
O636        O  0.93167101  0.84691149  0.38051218    -0.39900
C637        C  0.97206952  0.55959602  0.59491566    -0.13600
C638        C  0.94942090  0.53355448  0.61335487     0.16800
C639        C  0.92435533  0.54644718  0.64079645     0.03100
C640        C  0.92132739  0.58486088  0.64836470    -0.12100
C641        C  0.94276356  0.61137378  0.62882835    -0.03100
C642        C  0.96894091  0.59813219  0.60215902     0.02300
C643        C  0.95214301  0.49304850  0.60376562     0.09200
N644        N  0.90058657  0.52094969  0.66020581     0.65500
H645        H  0.90129125  0.59389610  0.66905415     0.18400
N646        N  0.99292684  0.62307333  0.58228356     0.76000
H647        H  0.99218597  0.54998914  0.57456747     0.10000
C648        C  0.94626230  0.47996834  0.56711025     0.03700
C649        C  0.94632614  0.44142332  0.55956372    -0.05100
C650        C  0.95246891  0.41504862  0.58794928    -0.23500
C651        C  0.96107086  0.42850341  0.62416131     0.12900
C652        C  0.96048314  0.46709806  0.63172389    -0.12600
N653        N  0.93853740  0.50536527  0.53746338     0.64600
H654        H  0.94022437  0.43226069  0.53145594     0.12400
N655        N  0.97112034  0.40362475  0.65352113     0.61200
H656        H  0.96671260  0.47687636  0.65960739     0.08600
O657        O  0.98130415  0.63806057  0.55274532    -0.40300
O658        O  0.02753818  0.62255985  0.58877276    -0.39400
O659        O  0.90670879  0.51397730  0.69406942    -0.39400
O660        O  0.87042510  0.51021365  0.64538789    -0.37100
O661        O  0.00421044  0.39176222  0.65564822    -0.38000
O662        O  0.94910274  0.39877201  0.68050395    -0.34200
O663        O  0.96285017  0.51098139  0.51266525    -0.35600
O664        O  0.90566591  0.51698225  0.53260724    -0.39900
C665        C  0.71263907  0.73901976  0.64344435    -0.13600
C666        C  0.69833838  0.72326864  0.67612391     0.16800
C667        C  0.72310834  0.71334877  0.70485639     0.03100
C668        C  0.76172904  0.71867354  0.70028837    -0.12100
C669        C  0.77627530  0.73428126  0.66743203    -0.03100
C670        C  0.75114041  0.74459441  0.63884571     0.02300
C671        C  0.65831619  0.71253567  0.67724715     0.09200
N672        N  0.70940898  0.69743331  0.73863522     0.65500
H673        H  0.78035129  0.71085629  0.72265240     0.18400
N674        N  0.76436471  0.75820858  0.60388280     0.76000
H675        H  0.69389289  0.74574324  0.62080966     0.10000
C676        C  0.63036917  0.73760296  0.68896622     0.03700
C677        C  0.59257696  0.72720655  0.68642976    -0.05100
C678        C  0.58186229  0.69202146  0.67189287    -0.23500
C679        C  0.61030515  0.66699446  0.66011508     0.12900
C680        C  0.64794578  0.67735075  0.66322347    -0.12600
N681        N  0.63991831  0.77398249  0.70280641     0.64600
H682        H  0.57159195  0.74693928  0.69566950     0.12400
N683        N  0.60165274  0.63186313  0.64278628     0.61200
H684        H  0.66926249  0.65823005  0.65340208     0.08600
O685        O  0.76260673  0.79276476  0.59688692    -0.40300
O686        O  0.77113821  0.73529608  0.57786028    -0.39400
O687        O  0.71583516  0.66350235  0.74585246    -0.39400
O688        O  0.69585944  0.71847678  0.76351912    -0.37100
O689        O  0.59613862  0.63042818  0.60809123    -0.38000
O690        O  0.60587194  0.60186513  0.66071216    -0.34200
O691        O  0.63833723  0.80178927  0.68133590    -0.35600
O692        O  0.64286517  0.77929284  0.73745170    -0.39900
C693        C  0.35997321  0.57115766  0.13963011    -0.13600
C694        C  0.39081743  0.54703507  0.14202542     0.16800
C695        C  0.42709141  0.56263019  0.14044001     0.03100
C696        C  0.43176452  0.60170282  0.14052056    -0.12100
C697        C  0.40078496  0.62568313  0.14208294    -0.03100
C698        C  0.36461629  0.61009346  0.13985685     0.02300
C699        C  0.38406744  0.50633508  0.14865252     0.09200
N700        N  0.45951240  0.53942137  0.14091292     0.65500
H701        H  0.45971204  0.61322525  0.14153517     0.18400
N702        N  0.33231055  0.63341821  0.13753640     0.76000
H703        H  0.33201926  0.55970278  0.13853173     0.10000
C704        C  0.35951986  0.49470421  0.17719436     0.03700
C705        C  0.35131119  0.45674363  0.18169704    -0.05100
C706        C  0.36805236  0.42934484  0.15919010    -0.23500
C707        C  0.39330350  0.44057650  0.13121588     0.12900
C708        C  0.40065541  0.47889645  0.12575848    -0.12600
N709        N  0.34339084  0.52105944  0.20264725     0.64600
H710        H  0.33240393  0.44857867  0.20371155     0.12400
N711        N  0.41011048  0.41366976  0.10688814     0.61200
H712        H  0.41861742  0.48714646  0.10309826     0.08600
O713        O  0.30931564  0.63423986  0.16414597    -0.40300
O714        O  0.32331737  0.64736100  0.10660088    -0.39400
O715        O  0.47659416  0.53290895  0.11083471    -0.39400
O716        O  0.47546532  0.53277661  0.17148470    -0.37100
O717        O  0.39464199  0.40575354  0.07625282    -0.38000
O718        O  0.44314810  0.40306909  0.11283723    -0.34200
O719        O  0.30842307  0.52527064  0.20354185    -0.35600
O720        O  0.36324713  0.53520171  0.22816464    -0.39900
C721        C  0.20581072  0.35420042  0.19374128    -0.13600
C722        C  0.19451317  0.31658138  0.19105198     0.16800
C723        C  0.22224125  0.28858688  0.18882765     0.03100
C724        C  0.26013612  0.29858711  0.18778050    -0.12100
C725        C  0.27151568  0.33631702  0.18933434    -0.03100
C726        C  0.24368966  0.36423195  0.19355272     0.02300
C727        C  0.15393905  0.30755023  0.18694356     0.09200
N728        N  0.21240422  0.24975650  0.18752762     0.65500
H729        H  0.28063454  0.27656356  0.18498174     0.18400
N730        N  0.25314676  0.40298700  0.19769687     0.76000
H731        H  0.18513177  0.37615443  0.19493538     0.10000
C732        C  0.12670505  0.32244187  0.21128989     0.03700
C733        C  0.08864226  0.31608183  0.20436326    -0.05100
C734        C  0.07665727  0.29462229  0.17359548    -0.23500
C735        C  0.10398656  0.27960604  0.14932079     0.12900
C736        C  0.14200491  0.28634558  0.15604891    -0.12600
N737        N  0.13719321  0.34352752  0.24362991     0.64600
H738        H  0.06840198  0.32759518  0.22360369     0.12400
N739        N  0.09372548  0.25911560  0.11655916     0.61200
H740        H  0.16223714  0.27596212  0.13621559     0.08600
O741        O  0.25827722  0.41646997  0.22986730    -0.40300
O742        O  0.24953408  0.42480754  0.17041174    -0.39400
O743        O  0.21969085  0.23061576  0.15878068    -0.39400
O744        O  0.20300276  0.23333134  0.21710954    -0.37100
O745        O  0.08752643  0.27652905  0.08672101    -0.38000
O746        O  0.09773915  0.22400354  0.11564819    -0.34200
O747        O  0.12896361  0.37783543  0.24582782    -0.35600
O748        O  0.14794833  0.32655281  0.27240828    -0.39900
C749        C  0.43171436  0.19497676  0.47639274    -0.13600
C750        C  0.42394246  0.22603647  0.45385723     0.16800
C751        C  0.41516354  0.26051331  0.47109272     0.03100
C752        C  0.41563001  0.26367115  0.51006118    -0.12100
C753        C  0.42536572  0.23307810  0.53259099    -0.03100
C754        C  0.43291587  0.19823667  0.51526663     0.02300
C755        C  0.42506623  0.22148453  0.41257940     0.09200
N756        N  0.40755521  0.29307539  0.44943778     0.65500
H757        H  0.40976901  0.29065328  0.52262471     0.18400
N758        N  0.44122988  0.16564426  0.53663634     0.76000
H759        H  0.43706587  0.16795537  0.46371632     0.10000
C760        C  0.45644611  0.20540033  0.39491611     0.03700
C761        C  0.45554270  0.19752608  0.35673144    -0.05100
C762        C  0.42421777  0.20639398  0.33520324    -0.23500
C763        C  0.39318294  0.22340256  0.35233892     0.12900
C764        C  0.39368330  0.23062318  0.39086840    -0.12600
N765        N  0.48981512  0.19765191  0.41529612     0.64600
H766        H  0.47967840  0.18483176  0.34368987     0.12400
N767        N  0.36012988  0.23109608  0.33148428     0.61200
H768        H  0.36905204  0.24209307  0.40401534     0.08600
O769        O  0.47477592  0.15581891  0.54086929    -0.40300
O770        O  0.41536427  0.14302463  0.54469542    -0.39400
O771        O  0.37503054  0.30657574  0.44909004    -0.39400
O772        O  0.43431569  0.31190492  0.43633167    -0.37100
O773        O  0.33644829  0.20540033  0.32599020    -0.38000
O774        O  0.35210389  0.26444212  0.32327759    -0.34200
O775        O  0.49996293  0.16417743  0.42000388    -0.35600
O776        O  0.51203013  0.22404188  0.42315506    -0.39900
C777        C  0.43881361  0.05692010  0.19500243    -0.13600
C778        C  0.43682478  0.03095790  0.22411794     0.16800
C779        C  0.43665538  0.04408431  0.26109550     0.03100
C780        C  0.43704277  0.08264309  0.26843434    -0.12100
C781        C  0.43781958  0.10912001  0.23940870    -0.03100
C782        C  0.43975811  0.09563973  0.20223513     0.02300
C783        C  0.43521939  0.99025025  0.21548381     0.09200
N784        N  0.43449709  0.01856079  0.29154012     0.65500
H785        H  0.43589644  0.09168772  0.29722093     0.18400
N786        N  0.44312716  0.12058693  0.17144664     0.76000
H787        H  0.43987798  0.04702991  0.16646333     0.10000
C788        C  0.40477667  0.97463658  0.19596666     0.03700
C789        C  0.40425331  0.93629879  0.18744905    -0.05100
C790        C  0.43355591  0.91265680  0.19844966    -0.23500
C791        C  0.46434495  0.92850880  0.21765771     0.12900
C792        C  0.46483602  0.96697247  0.22607127    -0.12600
N793        N  0.37339247  0.99711546  0.18604008     0.64600
H794        H  0.38014539  0.92482332  0.17316015     0.12400
N795        N  0.49605092  0.90638028  0.22736880     0.61200
H796        H  0.48873234  0.97885306  0.24038528     0.08600
O797        O  0.41494907  0.12742287  0.15154168    -0.40300
O798        O  0.47515638  0.13006495  0.16021298    -0.39400
O799        O  0.46328181  0.01191625  0.31063472    -0.39400
O800        O  0.40298655  0.00782623  0.30308774    -0.37100
O801        O  0.52141479  0.90085536  0.20358808    -0.38000
O802        O  0.50186045  0.89821307  0.26101288    -0.34200
O803        O  0.36681849  0.00377664  0.15220219    -0.35600
O804        O  0.34910721  0.00495227  0.21030132    -0.39900
C805        C  0.72578934  0.22552065  0.14446175    -0.13600
C806        C  0.70869447  0.25355750  0.12327577     0.16800
C807        C  0.73103048  0.28182496  0.10740619     0.03100
C808        C  0.76974340  0.28161596  0.11285484    -0.12100
C809        C  0.78714014  0.25399741  0.13460556    -0.03100
C810        C  0.76463649  0.22538487  0.15013644     0.02300
C811        C  0.66750740  0.25332929  0.11836482     0.09200
N812        N  0.71461900  0.31224179  0.08754039     0.65500
H813        H  0.78606773  0.30418780  0.10103831     0.18400
N814        N  0.78071750  0.19543240  0.17085006     0.76000
H815        H  0.70888166  0.20346916  0.15645264     0.10000
C816        C  0.65109420  0.24620345  0.08341154     0.03700
C817        C  0.61237046  0.24900383  0.07915965    -0.05100
C818        C  0.58892712  0.25851978  0.10930019    -0.23500
C819        C  0.60546671  0.26441921  0.14466090     0.12900
C820        C  0.64441280  0.26178297  0.14882642    -0.12600
N821        N  0.67323128  0.23505275  0.05212890     0.64600
H822        H  0.60069178  0.24336497  0.05189757     0.12400
N823        N  0.58352219  0.27447645  0.17635113     0.61200
H824        H  0.65680009  0.26729613  0.17582248     0.08600
O825        O  0.79294866  0.16699631  0.15379225    -0.40300
O826        O  0.77587128  0.19401997  0.20561737    -0.39400
O827        O  0.69887407  0.33826424  0.10550534    -0.39400
O828        O  0.72294120  0.31724929  0.05378380    -0.37100
O829        O  0.57583295  0.25001510  0.20041134    -0.38000
O830        O  0.57793525  0.30862256  0.18370335    -0.34200
O831        O  0.68370129  0.20141565  0.04939437    -0.35600
O832        O  0.67472929  0.25582014  0.02384319    -0.39900
C833        C  0.44522944  0.28251647  0.96625060    -0.13600
C834        C  0.47194167  0.27073614  0.94007333     0.16800
C835        C  0.50724614  0.25911025  0.95268328     0.03100
C836        C  0.51552404  0.25989911  0.99063818    -0.12100
C837        C  0.48914229  0.27187354  0.01717874    -0.03100
C838        C  0.45347257  0.28321909  0.00455000     0.02300
C839        C  0.46386338  0.27269342  0.89954659     0.09200
N840        N  0.53487427  0.24557739  0.92724289     0.65500
H841        H  0.54284011  0.25036935  0.99922753     0.18400
N842        N  0.42584249  0.29695542  0.02984016     0.76000
H843        H  0.41825769  0.29225191  0.95685384     0.10000
C844        C  0.43436875  0.25233687  0.88315300     0.03700
C845        C  0.42953542  0.25277301  0.84442602    -0.05100
C846        C  0.45383549  0.27315465  0.82117897    -0.23500
C847        C  0.48262985  0.29466827  0.83802456     0.12900
C848        C  0.48714654  0.29436243  0.87675928    -0.12600
N849        N  0.41031539  0.22945137  0.90521809     0.64600
H850        H  0.40716672  0.23611888  0.83253482     0.12400
N851        N  0.50827836  0.31622423  0.81639765     0.61200
H852        H  0.50949582  0.31071377  0.88911607     0.08600
O853        O  0.39739889  0.27728025  0.03684816    -0.40300
O854        O  0.42672009  0.33083688  0.04006733    -0.39400
O855        O  0.56428086  0.26437146  0.92196714    -0.39400
O856        O  0.53298889  0.21225244  0.91543848    -0.37100
O857        O  0.50187035  0.35048701  0.81082839    -0.38000
O858        O  0.54022357  0.30317926  0.80928427    -0.34200
O859        O  0.37797702  0.24089414  0.91321739    -0.35600
O860        O  0.41851348  0.19551796  0.91040371    -0.39900
loop_ 
_geom_bond_atom_site_label_1 
_geom_bond_atom_site_label_2 
_geom_bond_distance 
_geom_bond_site_symmetry_2 
_ccdc_geom_bond_type 
C1            N2   1.363       .  A
C1            N6   1.356       .  A
C1          C818   1.495       .  S
N2            C3   1.364       .  A
C3            N4   1.361       .  A
C3           C21   1.468       .  S
N4            C5   1.358       .  A
C5            N6   1.355       .  A
C5          C837   1.491       .  S
C7            N8   1.359       .  A
C7           N12   1.355       .  A
C7          C762   1.474       .  S
N8            C9   1.361       .  A
C9           N10   1.362       .  A
C9           C23   1.471       .  S
N10          C11   1.362       .  A
C11          N12   1.358       .  A
C11         C781   1.498       .  S
C13          N14   1.359       .  A
C13          N18   1.357       .  A
C13         C706   1.480       .  S
N14          C15   1.361       .  A
C15          N16   1.361       .  A
C15          C19   1.471       .  S
N16          C17   1.362       .  A
C17          N18   1.356       .  A
C17         C725   1.495       .  S
C19          N20   1.358       .  A
C19          N24   1.361       .  A
N20          C21   1.358       .  A
C21          N22   1.359       .  A
N22          C23   1.361       .  A
C23          N24   1.361       .  A
O25          C41   1.275       .  A
O25         Zn31   2.034       .  S
C26         C529   1.491       .  S
C26          O42   1.274       .  A
C26          O39   1.278       .  A
O27          C40   1.278       .  A
O27         Cd34   2.084       .  S
O28          C46   1.278       .  A
O28         Cd37   2.087       .  S
O29          C43   1.276       .  A
O29         Cd33   2.066       .  S
O30          C41   1.274       .  A
O30         Cd33   2.062       .  S
Zn31         O42   2.015   1_655  S
Zn31         O44   2.017       .  S
Zn31         O36   1.953       .  S
O32          C43   1.278       .  A
O32         Cd37   2.095       .  S
Cd33         O35   2.071       .  S
Cd33         O36   1.995       .  S
Cd34         O38   2.098       .  S
Cd34         O47   2.077       .  S
Cd34         O36   2.006       .  S
O35          C45   1.274       .  A
O36         Cd37   2.017       .  S
Cd37         O39   2.095   1_655  S
O38          C45   1.278       .  A
C40         C641   1.494       .  S
C40          O44   1.273       .  A
C41         C613   1.492       .  S
C43         C585   1.492       .  S
C45         C669   1.490       .  S
C46         C557   1.485       .  S
C46          O47   1.277       .  A
C48          N49   1.356       .  A
C48          N53   1.363       .  A
C48         C473   1.486       .  S
N49          C50   1.356       .  A
C50          N51   1.359       .  A
C50         C501   1.489       .  S
N51          C52   1.361       .  A
C52          N53   1.364       .  A
C52          C66   1.472       .  S
C54          N55   1.357       .  A
C54          N59   1.356       .  A
C54         C454   1.475       .  S
N55          C56   1.358       .  A
C56          N57   1.363       .  A
C56         C678   1.495       .  S
N57          C58   1.362       .  A
C58          N59   1.359       .  A
C58          C70   1.466       .  S
C60          N61   1.360       .  A
C60          N65   1.357       .  A
C60         C538   1.491       .  S
N61          C62   1.361       .  A
C62          N63   1.362       .  A
C62          C68   1.471       .  S
N63          C64   1.361       .  A
C64          N65   1.359       .  A
C64         C426   1.496       .  S
C66          N67   1.361       .  A
C66          N71   1.360       .  A
N67          C68   1.360       .  A
C68          N69   1.357       .  A
N69          C70   1.358       .  A
C70          N71   1.360       .  A
O72          C88   1.276       .  A
O72         Zn78   2.022       .  S
C73         C361   1.487       .  S
C73          O89   1.274       .  A
C73          O86   1.276       .  A
O74          C87   1.274       .  A
O74         Cd81   2.063       .  S
O75          C93   1.278       .  A
O75         Cd84   2.080       .  S
O76          C90   1.274       .  A
O76         Cd80   2.063       .  S
O77          C88   1.275       .  A
O77         Cd80   2.073       .  S
Zn78         O89   2.010       .  S
Zn78         O91   2.030       .  S
Zn78         O83   1.945       .  S
O79          C90   1.276       .  A
O79         Cd84   2.080       .  S
Cd80         O82   2.062       .  S
Cd80         O83   2.001       .  S
Cd81         O85   2.081       .  S
Cd81         O94   2.079       .  S
Cd81         O83   2.001       .  S
O82          C92   1.272       .  A
O83         Cd84   2.010       .  S
Cd84         O86   2.086       .  S
O85          C92   1.276       .  A
C87         C510   1.480       .  S
C87          O91   1.275       .  A
C88         C846   1.493       .  S
C90         C445   1.478       .  S
C92         C398   1.475       .  S
C93         C753   1.488       .  S
C93          O94   1.277       .  A
C95          N96   1.358       .  A
C95         N100   1.359       .  A
C95         C370   1.488       .  S
N96          C97   1.359       .  A
C97          N98   1.357   1_455  A
C97         C333   1.490   1_455  S
N98          C99   1.357       .  A
C99         N100   1.359   1_655  A
C99         C115   1.461       .  S
C101        N102   1.359       .  A
C101        N106   1.359       .  A
C101        C305   1.479       .  S
N102        C103   1.360       .  A
C103        N104   1.359       .  A
C103        C113   1.465       .  S
N104        C105   1.358       .  A
C105        N106   1.358       .  A
C105        C650   1.494       .  S
C107        N108   1.361       .  A
C107        N112   1.360       .  A
C107        C594   1.497       .  S
N108        C109   1.360       .  A
C109        N110   1.357       .  A
C109        C117   1.462       .  S
N110        C111   1.356       .  A
C111        N112   1.357       .  A
C111        C389   1.480       .  S
C113        N114   1.358       .  A
C113        N118   1.358       .  A
N114        C115   1.357       .  A
C115        N116   1.357       .  A
N116        C117   1.357       .  A
C117        N118   1.359       .  A
O119        C135   1.275       .  A
O119       Zn125   2.019       .  S
C120        C809   1.494       .  S
C120        O136   1.275       .  A
C120        O133   1.278       .  A
O121        C134   1.275       .  A
O121       Cd128   2.084       .  S
O122        C140   1.279       .  A
O122       Cd131   2.096       .  S
O123        C137   1.276       .  A
O123       Cd127   2.069       .  S
O124        C135   1.274       .  A
O124       Cd127   2.068       .  S
Zn125       O136   2.017       .  S
Zn125       O138   2.028       .  S
Zn125       O130   1.940       .  S
O126        C137   1.278       .  A
O126       Cd131   2.093       .  S
Cd127       O129   2.079   1_655  S
Cd127       O130   2.003       .  S
Cd128       O132   2.082   1_655  S
Cd128       O141   2.057       .  S
Cd128       O130   2.003       .  S
O129        C139   1.275       .  A
O130       Cd131   2.020       .  S
Cd131       O133   2.097       .  S
O132        C139   1.277       .  A
C134        C286   1.497       .  S
C134        O138   1.276       .  A
C135        C342   1.491       .  S
C137        C258   1.488       .  S
C139        C734   1.492       .  S
C140        C314   1.484       .  S
C140        O141   1.274       .  A
C142        N143   1.360       .  A
C142        N147   1.358   1_655  A
C142        C249   1.478       .  S
N143        C144   1.360       .  A
C144        N145   1.359   1_655  A
C144        C164   1.467       .  S
N145        C146   1.360       .  A
C146        N147   1.359       .  A
C146        C221   1.483       .  S
C148        N149   1.359       .  A
C148        N153   1.356       .  A
C148        C202   1.480       .  S
N149        C150   1.361       .  A
C150        N151   1.362       .  A
C150        C162   1.470       .  S
N151        C152   1.362       .  A
C152        N153   1.355       .  A
C152        C622   1.489       .  S
C154        N155   1.359       .  A
C154        N159   1.361       .  A
C154        C566   1.482   1_554  S
N155        C156   1.358       .  A
C156        N157   1.360       .  A
C156        C277   1.495       .  S
N157        C158   1.360       .  A
C158        N159   1.361       .  A
C158        C160   1.470       .  S
C160        N161   1.359       .  A
C160        N165   1.359       .  A
N161        C162   1.359       .  A
C162        N163   1.360       .  A
N163        C164   1.360       .  A
C164        N165   1.359       .  A
O166        C182   1.274       .  A
O166       Zn172   2.024       .  S
C167        C697   1.481       .  S
C167        O183   1.276       .  A
C167        O180   1.277       .  A
O168        C181   1.274       .  A
O168       Cd175   2.057       .  S
O169        C187   1.277       .  A
O169       Cd178   2.084       .  S
O170        C184   1.276       .  A
O170       Cd174   2.075       .  S
O171        C182   1.275       .  A
O171       Cd174   2.068       .  S
Zn172       O183   2.021       .  S
Zn172       O185   2.044       .  S
Zn172       O177   1.957       .  S
O173        C184   1.277       .  A
O173       Cd178   2.087       .  S
Cd174       O176   2.074       .  S
Cd174       O177   1.994       .  S
Cd175       O179   2.077       .  S
Cd175       O188   2.061       .  S
Cd175       O177   1.996       .  S
O176        C186   1.276       .  A
O177       Cd178   2.010       .  S
Cd178       O180   2.084       .  S
O179        C186   1.275       .  A
C181        C417   1.493       .  S
C181        O185   1.277       .  A
C182        C230   1.492       .  S
C184        C482   1.487       .  S
C186        C790   1.488       .  S
C187        C193   1.480       .  S
C187        O188   1.274       .  A
C189        C190   1.406       .  A
C189        C194   1.400       .  A
C189        H199   1.079       .  S
C190        C195   1.493       .  S
C190        C191   1.414       .  A
C191        C192   1.402       .  A
C191        N196   1.429       .  S
C192        C193   1.403       .  A
C192        H197   1.081       .  S
C193        C194   1.411       .  A
C194        N198   1.430       .  S
C195        C200   1.414       .  A
C195        C204   1.408       .  A
N196        O211   1.262       .  A
N196        O212   1.262       .  A
N198        O209   1.262       .  A
N198        O210   1.262       .  A
C200        C201   1.398       .  A
C200        N205   1.430       .  S
C201        C202   1.403       .  A
C201        H206   1.081       .  S
C202        C203   1.410       .  A
C203        C204   1.404       .  A
C203        N207   1.429       .  S
C204        H208   1.079       .  S
N205        O215   1.262       .  A
N205        O216   1.262       .  A
N207        O213   1.262       .  A
N207        O214   1.262       .  A
C217        C218   1.401       .  A
C217        C222   1.400       .  A
C217        H227   1.082       .  S
C218        C223   1.482       .  S
C218        C219   1.408       .  A
C219        C220   1.402       .  A
C219        N224   1.428       .  S
C220        C221   1.405       .  A
C220        H225   1.082       .  S
C221        C222   1.414       .  A
C222        N226   1.430       .  S
C223        C228   1.406       .  A
C223        C232   1.402       .  A
N224        O239   1.262       .  A
N224        O240   1.262       .  A
N226        O237   1.262       .  A
N226        O238   1.262       .  A
C228        C229   1.398       .  A
C228        N233   1.429       .  S
C229        C230   1.408       .  A
C229        H234   1.082       .  S
C230        C231   1.419       .  A
C231        C232   1.404       .  A
C231        N235   1.430       .  S
C232        H236   1.082       .  S
N233        O243   1.262       .  A
N233        O244   1.262       .  A
N235        O241   1.262       .  A
N235        O242   1.262       .  A
C245        C246   1.408   1_565  A
C245        C250   1.401       .  A
C245        H255   1.080   1_665  S
C246        C251   1.500       .  S
C246        C247   1.417   1_545  A
C247        C248   1.404       .  A
C247        N252   1.429       .  S
C248        C249   1.400       .  A
C248        H253   1.082       .  S
C249        C250   1.409       .  A
C250        N254   1.430   1_655  S
C251        C256   1.416       .  A
C251        C260   1.408       .  A
N252        O267   1.262       .  A
N252        O268   1.262   1_565  A
N254        O265   1.262       .  A
N254        O266   1.262       .  A
C256        C257   1.400       .  A
C256        N261   1.430   1_655  S
C257        C258   1.404       .  A
C257        H262   1.082   1_655  S
C258        C259   1.412       .  A
C259        C260   1.405       .  A
C259        N263   1.429       .  S
C260        H264   1.079       .  S
N261        O271   1.262       .  A
N261        O272   1.262       .  A
N263        O269   1.262       .  A
N263        O270   1.262       .  A
C273        C274   1.404       .  A
C273        C278   1.401       .  A
C273        H283   1.080       .  S
C274        C279   1.495       .  S
C274        C275   1.412       .  A
C275        C276   1.405       .  A
C275        N280   1.429       .  S
C276        C277   1.408       .  A
C276        H281   1.081       .  S
C277        C278   1.417       .  A
C278        N282   1.429       .  S
C279        C284   1.411       .  A
C279        C288   1.405       .  A
N280        O295   1.262       .  A
N280        O296   1.262       .  A
N282        O293   1.262   1_554  A
N282        O294   1.262       .  A
C284        C285   1.402       .  A
C284        N289   1.430       .  S
C285        C286   1.408       .  A
C285        H290   1.081       .  S
C286        C287   1.417       .  A
C287        C288   1.405       .  A
C287        N291   1.429       .  S
C288        H292   1.080       .  S
N289        O299   1.262       .  A
N289        O300   1.262       .  A
N291        O297   1.262       .  A
N291        O298   1.262       .  A
C301        C302   1.408       .  A
C301        C306   1.406       .  A
C301        H311   1.080       .  S
C302        C307   1.492       .  S
C302        C303   1.414       .  A
C303        C304   1.396       .  A
C303        N308   1.431       .  S
C304        C305   1.401       .  A
C304        H309   1.082       .  S
C305        C306   1.411       .  A
C306        N310   1.429       .  S
C307        C312   1.413       .  A
C307        C316   1.404       .  A
N308        O323   1.262       .  A
N308        O324   1.262   1_655  A
N310        O321   1.262       .  A
N310        O322   1.262       .  A
C312        C313   1.405       .  A
C312        N317   1.429       .  S
C313        C314   1.406       .  A
C313        H318   1.081       .  S
C314        C315   1.413       .  A
C315        C316   1.397       .  A
C315        N319   1.430       .  S
C316        H320   1.081       .  S
N317        O327   1.262       .  A
N317        O328   1.262       .  A
N319        O325   1.262       .  A
N319        O326   1.262       .  A
C329        C330   1.402       .  A
C329        C334   1.403       .  A
C329        H339   1.082       .  S
C330        C335   1.484       .  S
C330        C331   1.408   1_655  A
C331        C332   1.397       .  A
C331        N336   1.430       .  S
C332        C333   1.407   1_455  A
C332        H337   1.082       .  S
C333        C334   1.417       .  A
C334        N338   1.429       .  S
C335        C340   1.407       .  A
C335        C344   1.402       .  A
N336        O351   1.262       .  A
N336        O352   1.262       .  A
N338        O349   1.262       .  A
N338        O350   1.262       .  A
C340        C341   1.401       .  A
C340        N345   1.429       .  S
C341        C342   1.409   1_556  A
C341        H346   1.082       .  S
C342        C343   1.417   1_554  A
C343        C344   1.400       .  A
C343        N347   1.429   1_656  S
C344        H348   1.082   1_655  S
N345        O355   1.262       .  A
N345        O356   1.262       .  A
N347        O353   1.262       .  A
N347        O354   1.262       .  A
C357        C358   1.402       .  A
C357        C362   1.405       .  A
C357        H367   1.082       .  S
C358        C363   1.478       .  S
C358        C359   1.405       .  A
C359        C360   1.398       .  A
C359        N364   1.429       .  S
C360        C361   1.407       .  A
C360        H365   1.082       .  S
C361        C362   1.415       .  A
C362        N366   1.429       .  S
C363        C368   1.406       .  A
C363        C372   1.400       .  A
N364        O379   1.262       .  A
N364        O380   1.262       .  A
N366        O377   1.262       .  A
N366        O378   1.262       .  A
C368        C369   1.400       .  A
C368        N373   1.429       .  S
C369        C370   1.408       .  A
C369        H374   1.082       .  S
C370        C371   1.416       .  A
C371        C372   1.403       .  A
C371        N375   1.429       .  S
C372        H376   1.083       .  S
N373        O383   1.262       .  A
N373        O384   1.262       .  A
N375        O381   1.262       .  A
N375        O382   1.262       .  A
C385        C386   1.405       .  A
C385        C390   1.396       .  A
C385        H395   1.083       .  S
C386        C391   1.492       .  S
C386        C387   1.416       .  A
C387        C388   1.406       .  A
C387        N392   1.432       .  S
C388        C389   1.405       .  A
C388        H393   1.083       .  S
C389        C390   1.409       .  A
C390        N394   1.429       .  S
C391        C396   1.416       .  A
C391        C400   1.407       .  A
N392        O407   1.262       .  A
N392        O408   1.262       .  A
N394        O405   1.261       .  A
N394        O406   1.262       .  A
C396        C397   1.405       .  A
C396        N401   1.432       .  S
C397        C398   1.403       .  A
C397        H402   1.083       .  S
C398        C399   1.406       .  A
C399        C400   1.397       .  A
C399        N403   1.429       .  S
C400        H404   1.083       .  S
N401        O411   1.262       .  A
N401        O412   1.262       .  A
N403        O409   1.262       .  A
N403        O410   1.262       .  A
C413        C414   1.402       .  A
C413        C418   1.404       .  A
C413        H423   1.082       .  S
C414        C419   1.481       .  S
C414        C415   1.405       .  A
C415        C416   1.398       .  A
C415        N420   1.429       .  S
C416        C417   1.410       .  A
C416        H421   1.082       .  S
C417        C418   1.417       .  A
C418        N422   1.429       .  S
C419        C424   1.402       .  A
C419        C428   1.404       .  A
N420        O435   1.262       .  A
N420        O436   1.262       .  A
N422        O433   1.262       .  A
N422        O434   1.262       .  A
C424        C425   1.398       .  A
C424        N429   1.429       .  S
C425        C426   1.411       .  A
C425        H430   1.062       .  S
C426        C427   1.417       .  A
C427        C428   1.407       .  A
C427        N431   1.429       .  S
C428        H432   1.076       .  S
N429        O439   1.262       .  A
N429        O440   1.262       .  A
N431        O437   1.262       .  A
N431        O438   1.262       .  A
C441        C442   1.405       .  A
C441        C446   1.398       .  A
C441        H451   1.079       .  S
C442        C447   1.488       .  S
C442        C443   1.412       .  A
C443        C444   1.404       .  A
C443        N448   1.429       .  S
C444        C445   1.405       .  A
C444        H449   1.080       .  S
C445        C446   1.410       .  A
C446        N450   1.430       .  S
C447        C452   1.412       .  A
C447        C456   1.407       .  A
N448        O463   1.262       .  A
N448        O464   1.262       .  A
N450        O461   1.262       .  A
N450        O462   1.262       .  A
C452        C453   1.396       .  A
C452        N457   1.430       .  S
C453        C454   1.400       .  A
C453        H458   1.082       .  S
C454        C455   1.410       .  A
C455        C456   1.405       .  A
C455        N459   1.429       .  S
C456        H460   1.079       .  S
N457        O467   1.262       .  A
N457        O468   1.262       .  A
N459        O465   1.262       .  A
N459        O466   1.262       .  A
C469        C470   1.404       .  A
C469        C474   1.405       .  A
C469        H479   1.083       .  S
C470        C475   1.485       .  S
C470        C471   1.407       .  A
C471        C472   1.401       .  A
C471        N476   1.429       .  S
C472        C473   1.407       .  A
C472        H477   1.083       .  S
C473        C474   1.412       .  A
C474        N478   1.428       .  S
C475        C480   1.408       .  A
C475        C484   1.403       .  A
N476        O491   1.262       .  A
N476        O492   1.262       .  A
N478        O489   1.262       .  A
N478        O490   1.262       .  A
C480        C481   1.400   1_556  A
C480        N485   1.429       .  S
C481        C482   1.406       .  A
C481        H486   1.083       .  S
C482        C483   1.415       .  A
C483        C484   1.405   1_554  A
C483        N487   1.429       .  S
C484        H488   1.082       .  S
N485        O495   1.262       .  A
N485        O496   1.262       .  A
N487        O493   1.262       .  A
N487        O494   1.262       .  A
C497        C498   1.404       .  A
C497        C502   1.403       .  A
C497        H507   1.082       .  S
C498        C503   1.485   1_565  S
C498        C499   1.407       .  A
C499        C500   1.400       .  A
C499        N504   1.429   1_565  S
C500        C501   1.408       .  A
C500        H505   1.082       .  S
C501        C502   1.415       .  A
C502        N506   1.429       .  S
C503        C508   1.409       .  A
C503        C512   1.405       .  A
N504        O519   1.262       .  A
N504        O520   1.262       .  A
N506        O517   1.262       .  A
N506        O518   1.262       .  A
C508        C509   1.399       .  A
C508        N513   1.429       .  S
C509        C510   1.404       .  A
C509        H514   1.083       .  S
C510        C511   1.412       .  A
C511        C512   1.404       .  A
C511        N515   1.429       .  S
C512        H516   1.082       .  S
N513        O523   1.262       .  A
N513        O524   1.262       .  A
N515        O521   1.262       .  A
N515        O522   1.262       .  A
C525        C526   1.397       .  A
C525        C530   1.398       .  A
C525        H535   1.083       .  S
C526        C531   1.480       .  S
C526        C527   1.408       .  A
C527        C528   1.406       .  A
C527        N532   1.428       .  S
C528        C529   1.408       .  A
C528        H533   1.083       .  S
C529        C530   1.417       .  A
C530        N534   1.427       .  S
C531        C536   1.408       .  A
C531        C540   1.398       .  A
N532        O547   1.262       .  A
N532        O548   1.261       .  A
N534        O545   1.261       .  A
N534        O546   1.262       .  A
C536        C537   1.404       .  A
C536        N541   1.429       .  S
C537        C538   1.408       .  A
C537        H542   1.082       .  S
C538        C539   1.418       .  A
C539        C540   1.400       .  A
C539        N543   1.430       .  S
C540        H544   1.083       .  S
N541        O551   1.262       .  A
N541        O552   1.261       .  A
N543        O549   1.262       .  A
N543        O550   1.262       .  A
C553        C554   1.405       .  A
C553        C558   1.400       .  A
C553        H563   1.076       .  S
C554        C559   1.492       .  S
C554        C555   1.411       .  A
C555        C556   1.406       .  A
C555        N560   1.429       .  S
C556        C557   1.407       .  A
C556        H561   1.077       .  S
C557        C558   1.411       .  A
C558        N562   1.429       .  S
C559        C564   1.411       .  A
C559        C568   1.408       .  A
N560        O575   1.262       .  A
N560        O576   1.262       .  A
N562        O573   1.262       .  A
N562        O574   1.262       .  A
C564        C565   1.398       .  A
C564        N569   1.430       .  S
C565        C566   1.403       .  A
C565        H570   1.080       .  S
C566        C567   1.412       .  A
C567        C568   1.408       .  A
C567        N571   1.429   1_556  S
C568        H572   1.078       .  S
N569        O579   1.262       .  A
N569        O580   1.262       .  A
N571        O577   1.262   1_655  A
N571        O578   1.262       .  A
C581        C582   1.402       .  A
C581        C586   1.405       .  A
C581        H591   1.083       .  S
C582        C587   1.485   1_565  S
C582        C583   1.409       .  A
C583        C584   1.400       .  A
C583        N588   1.431       .  S
C584        C585   1.408       .  A
C584        H589   1.083       .  S
C585        C586   1.416       .  A
C586        N590   1.428       .  S
C587        C592   1.408       .  A
C587        C596   1.402       .  A
N588        O603   1.262       .  A
N588        O604   1.262       .  A
N590        O601   1.262       .  A
N590        O602   1.262       .  A
C592        C593   1.399       .  A
C592        N597   1.431       .  S
C593        C594   1.409       .  A
C593        H598   1.081       .  S
C594        C595   1.419       .  A
C595        C596   1.405       .  A
C595        N599   1.428       .  S
C596        H600   1.083       .  S
N597        O607   1.262   1_545  A
N597        O608   1.262       .  A
N599        O605   1.262       .  A
N599        O606   1.262       .  A
C609        C610   1.401       .  A
C609        C614   1.403       .  A
C609        H619   1.083       .  S
C610        C615   1.481       .  S
C610        C611   1.406       .  A
C611        C612   1.400       .  A
C611        N616   1.429       .  S
C612        C613   1.409       .  A
C612        H617   1.082       .  S
C613        C614   1.417       .  A
C614        N618   1.429       .  S
C615        C620   1.408       .  A
C615        C624   1.399       .  A
N616        O631   1.262       .  A
N616        O632   1.262       .  A
N618        O629   1.262       .  A
N618        O630   1.262       .  A
C620        C621   1.404       .  A
C620        N625   1.428       .  S
C621        C622   1.407       .  A
C621        H626   1.082       .  S
C622        C623   1.418       .  A
C623        C624   1.399       .  A
C623        N627   1.430       .  S
C624        H628   1.083       .  S
N625        O635   1.262       .  A
N625        O636   1.262       .  A
N627        O633   1.262       .  A
N627        O634   1.262       .  A
C637        C638   1.401       .  A
C637        C642   1.403       .  A
C637        H647   1.081       .  S
C638        C643   1.487       .  S
C638        C639   1.409       .  A
C639        C640   1.400       .  A
C639        N644   1.429       .  S
C640        C641   1.407       .  A
C640        H645   1.081       .  S
C641        C642   1.420       .  A
C642        N646   1.429       .  S
C643        C648   1.409       .  A
C643        C652   1.403       .  A
N644        O659   1.262       .  A
N644        O660   1.262       .  A
N646        O657   1.262       .  A
N646        O658   1.261   1_655  A
C648        C649   1.400       .  A
C648        N653   1.430       .  S
C649        C650   1.409       .  A
C649        H654   1.081       .  S
C650        C651   1.417       .  A
C651        C652   1.402       .  A
C651        N655   1.429       .  S
C652        H656   1.081       .  S
N653        O663   1.262       .  A
N653        O664   1.262       .  A
N655        O661   1.262   1_655  A
N655        O662   1.262       .  A
C665        C666   1.401       .  A
C665        C670   1.403       .  A
C665        H675   1.083       .  S
C666        C671   1.483       .  S
C666        C667   1.408       .  A
C667        C668   1.405       .  A
C667        N672   1.429       .  S
C668        C669   1.407       .  A
C668        H673   1.082       .  S
C669        C670   1.416       .  A
C670        N674   1.429       .  S
C671        C676   1.407       .  A
C671        C680   1.399       .  A
N672        O687   1.262       .  A
N672        O688   1.262       .  A
N674        O685   1.262       .  A
N674        O686   1.262       .  A
C676        C677   1.405       .  A
C676        N681   1.428       .  S
C677        C678   1.409       .  A
C677        H682   1.082       .  S
C678        C679   1.419       .  A
C679        C680   1.401       .  A
C679        N683   1.429       .  S
C680        H684   1.083       .  S
N681        O691   1.262       .  A
N681        O692   1.262       .  A
N683        O689   1.262       .  A
N683        O690   1.262       .  A
C693        C694   1.405       .  A
C693        C698   1.399       .  A
C693        H703   1.081       .  S
C694        C699   1.492       .  S
C694        C695   1.413       .  A
C695        C696   1.404       .  A
C695        N700   1.428       .  S
C696        C697   1.404       .  A
C696        H701   1.082       .  S
C697        C698   1.410       .  A
C698        N702   1.430       .  S
C699        C704   1.414       .  A
C699        C708   1.408       .  A
N700        O715   1.262       .  A
N700        O716   1.261       .  A
N702        O713   1.262       .  A
N702        O714   1.262       .  A
C704        C705   1.396       .  A
C704        N709   1.431       .  S
C705        C706   1.401       .  A
C705        H710   1.082       .  S
C706        C707   1.411       .  A
C707        C708   1.407       .  A
C707        N711   1.429       .  S
C708        H712   1.079       .  S
N709        O719   1.262       .  A
N709        O720   1.262       .  A
N711        O717   1.262       .  A
N711        O718   1.262       .  A
C721        C722   1.404       .  A
C721        C726   1.402       .  A
C721        H731   1.080       .  S
C722        C727   1.495       .  S
C722        C723   1.413       .  A
C723        C724   1.403       .  A
C723        N728   1.429       .  S
C724        C725   1.406       .  A
C724        H729   1.081       .  S
C725        C726   1.419       .  A
C726        N730   1.430       .  S
C727        C732   1.413       .  A
C727        C736   1.405       .  A
N728        O743   1.262       .  A
N728        O744   1.262       .  A
N730        O741   1.262       .  A
N730        O742   1.262       .  A
C732        C733   1.403       .  A
C732        N737   1.429       .  S
C733        C734   1.407       .  A
C733        H738   1.082       .  S
C734        C735   1.415       .  A
C735        C736   1.403       .  A
C735        N739   1.429       .  S
C736        H740   1.081       .  S
N737        O747   1.262       .  A
N737        O748   1.262       .  A
N739        O745   1.262       .  A
N739        O746   1.262       .  A
C749        C750   1.405       .  A
C749        C754   1.401       .  A
C749        H759   1.081       .  S
C750        C755   1.491       .  S
C750        C751   1.410       .  A
C751        C752   1.403       .  A
C751        N756   1.429       .  S
C752        C753   1.407       .  A
C752        H757   1.082       .  S
C753        C754   1.414       .  A
C754        N758   1.429       .  S
C755        C760   1.412       .  A
C755        C764   1.408       .  A
N756        O771   1.262       .  A
N756        O772   1.262       .  A
N758        O769   1.262       .  A
N758        O770   1.262       .  A
C760        C761   1.398       .  A
C760        N765   1.430       .  S
C761        C762   1.400       .  A
C761        H766   1.082       .  S
C762        C763   1.408       .  A
C763        C764   1.406       .  A
C763        N767   1.429       .  S
C764        H768   1.081       .  S
N765        O775   1.262       .  A
N765        O776   1.262       .  A
N767        O773   1.262       .  A
N767        O774   1.262       .  A
C777        C778   1.403       .  A
C777        C782   1.405       .  A
C777        H787   1.083       .  S
C778        C783   1.485   1_545  S
C778        C779   1.405       .  A
C779        C780   1.399       .  A
C779        N784   1.429       .  S
C780        C781   1.411       .  A
C780        H785   1.082       .  S
C781        C782   1.418       .  A
C782        N786   1.428       .  S
C783        C788   1.408       .  A
C783        C792   1.403       .  A
N784        O799   1.262       .  A
N784        O800   1.262       .  A
N786        O797   1.262       .  A
N786        O798   1.262       .  A
C788        C789   1.400       .  A
C788        N793   1.429       .  S
C789        C790   1.406       .  A
C789        H794   1.082       .  S
C790        C791   1.415       .  A
C791        C792   1.404       .  A
C791        N795   1.429       .  S
C792        H796   1.082       .  S
N793        O803   1.262   1_565  A
N793        O804   1.262   1_565  A
N795        O801   1.262       .  A
N795        O802   1.262       .  A
C805        C806   1.402       .  A
C805        C810   1.406       .  A
C805        H815   1.083       .  S
C806        C811   1.486       .  S
C806        C807   1.409       .  A
C807        C808   1.400       .  A
C807        N812   1.430       .  S
C808        C809   1.408       .  A
C808        H813   1.083       .  S
C809        C810   1.416       .  A
C810        N814   1.428       .  S
C811        C816   1.407       .  A
C811        C820   1.403       .  A
N812        O827   1.262       .  A
N812        O828   1.262       .  A
N814        O825   1.262       .  A
N814        O826   1.262       .  A
C816        C817   1.399       .  A
C816        N821   1.430       .  S
C817        C818   1.410       .  A
C817        H822   1.082       .  S
C818        C819   1.415       .  A
C819        C820   1.406       .  A
C819        N823   1.428       .  S
C820        H824   1.083       .  S
N821        O831   1.262       .  A
N821        O832   1.262       .  A
N823        O829   1.262       .  A
N823        O830   1.262       .  A
C833        C834   1.405       .  A
C833        C838   1.407   1_556  A
C833        H843   1.082       .  S
C834        C839   1.486       .  S
C834        C835   1.407       .  A
C835        C836   1.395       .  A
C835        N840   1.430       .  S
C836        C837   1.408   1_556  A
C836        H841   1.082       .  S
C837        C838   1.416       .  A
C838        N842   1.429       .  S
C839        C844   1.407       .  A
C839        C848   1.403       .  A
N840        O855   1.262       .  A
N840        O856   1.262       .  A
N842        O853   1.262       .  A
N842        O854   1.262       .  A
C844        C845   1.401       .  A
C844        N849   1.429       .  S
C845        C846   1.410       .  A
C845        H850   1.082       .  S
C846        C847   1.417       .  A
C847        C848   1.400       .  A
C847        N851   1.429       .  S
C848        H852   1.083       .  S
N849        O859   1.262       .  A
N849        O860   1.262       .  A
N851        O857   1.262       .  A
N851        O858   1.262       .  A
