geometry optimzed in LAMMPS
_audit_creation_date              2020-12-01 
_audit_creation_method            'lammps2cif' 
_symmetry_space_group_name_H-M    'P1' 
_symmetry_Int_Tables_number       1 
_symmetry_cell_setting            triclinic 
loop_ 
_symmetry_equiv_pos_as_xyz 
  x,y,z 
_cell_length_a                    55.55466943 
_cell_length_b                    55.6026181960587 
_cell_length_c                    55.58184018236655 
_cell_angle_alpha                 90.29376039513943 
_cell_angle_beta                  89.75476766180847 
_cell_angle_gamma                 90.32333448019293 
loop_ 
_atom_site_label 
_atom_site_type_symbol 
_atom_site_fract_x 
_atom_site_fract_y 
_atom_site_fract_z 
_atom_site_charge 
N1          N  0.55812191  0.88911659  0.70841165    -0.02600
C2          C  0.56876041  0.91042610  0.71422121     0.00000
C3          C  0.59332872  0.90896684  0.71029793    -0.22900
C4          C  0.59789451  0.88625164  0.70169875    -0.23100
C5          C  0.57596965  0.87446118  0.70044254    -0.00100
H6          H  0.60666318  0.92265119  0.71434382     0.13700
H7          H  0.61547079  0.87880612  0.69793609     0.13700
N8          N  0.55912483  0.08731021  0.80017410    -0.02600
C9          C  0.56885374  0.06901858  0.78713186     0.00000
C10         C  0.59309771  0.07314071  0.78320655    -0.22900
C11         C  0.59856530  0.09465687  0.79407433    -0.23100
C12         C  0.57750943  0.10302028  0.80437488    -0.00100
H13         H  0.60539518  0.06184860  0.77314949     0.13700
H14         H  0.61587888  0.10367431  0.79377496     0.13700
N15         N  0.85861688  0.71745704  0.59330474    -0.02600
C16         C  0.87745875  0.73076942  0.60139093     0.00000
C17         C  0.87109875  0.74285832  0.62222584    -0.22900
C18         C  0.84746887  0.73695978  0.62696474    -0.23100
C19         C  0.84008533  0.72158589  0.60875616    -0.00100
H20         H  0.88247935  0.75459914  0.63287923     0.13700
H21         H  0.83686814  0.74309765  0.64215264     0.13700
N22         N  0.07092964  0.76234892  0.60253974    -0.02600
C23         C  0.05071260  0.75304778  0.61277184     0.00000
C24         C  0.05641741  0.74201795  0.63425232    -0.22900
C25         C  0.08081241  0.74483232  0.63740099    -0.23100
C26         C  0.08934119  0.75720793  0.61759227    -0.00100
H27         H  0.04411586  0.73298852  0.64640662     0.13700
H28         H  0.09111455  0.73897201  0.65275337     0.13700
N29         N  0.56915126  0.70370177  0.43123220    -0.02600
C30         C  0.54954846  0.71215711  0.41946338     0.00000
C31         C  0.55643490  0.72135704  0.39737526    -0.22900
C32         C  0.58088585  0.71828198  0.39539612    -0.23100
C33         C  0.58829439  0.70755719  0.41643725    -0.00100
H34         H  0.54487234  0.72940579  0.38406291     0.13700
H35         H  0.59199419  0.72286367  0.38002960     0.13700
N36         N  0.35705683  0.75222223  0.43249700    -0.02600
C37         C  0.37667046  0.74092256  0.42333011     0.00000
C38         C  0.37177823  0.73219460  0.40053823    -0.22900
C39         C  0.34834401  0.73818696  0.39556605    -0.23100
C40         C  0.33959637  0.75027988  0.41554179    -0.00100
H41         H  0.38397935  0.72251435  0.38880534     0.13700
H42         H  0.33878657  0.73437103  0.37904479     0.13700
N43         N  0.68838665  0.57150341  0.91126748    -0.02600
C44         C  0.69805172  0.58138986  0.93136507     0.00000
C45         C  0.70339000  0.60538973  0.92763493    -0.22900
C46         C  0.69687261  0.61040468  0.90434707    -0.23100
C47         C  0.68771745  0.58930452  0.89474481    -0.00100
H48         H  0.71091234  0.61793055  0.94055917     0.13700
H49         H  0.69815216  0.62767258  0.89552655     0.13700
N50         N  0.75402422  0.57015250  0.11591916    -0.02600
C51         C  0.74903558  0.58021064  0.09432750     0.00000
C52         C  0.74456131  0.60449758  0.09705340    -0.22900
C53         C  0.74689972  0.60964081  0.12107649    -0.23100
C54         C  0.75242096  0.58826757  0.13231000    -0.00100
H55         H  0.73954825  0.61700424  0.08310867     0.13700
H56         H  0.74484878  0.62711629  0.12947626     0.13700
O57         O  0.57103703  0.36801603  0.84535014    -0.77600
C58         C  0.63044664  0.40198012  0.88712422     0.83400
O59         O  0.64584515  0.33518605  0.81507423    -0.78700
O60         O  0.66971526  0.33443953  0.89883086    -0.80200
O61         O  0.58529496  0.31586771  0.91473374    -0.80000
O62         O  0.55681102  0.33582725  0.86426396    -0.78600
Zn63       Zn  0.60745580  0.36725855  0.85064164     1.55700
O64         O  0.61790185  0.33449149  0.92888506    -0.80000
Cd65       Cd  0.58794063  0.32032220  0.87768736     1.59700
Cd66       Cd  0.63947236  0.31847550  0.84802543     1.59600
O67         O  0.58975197  0.28636643  0.86318578    -0.80000
O68         O  0.61746158  0.33886453  0.86840506    -1.90500
Cd69       Cd  0.63500391  0.34814183  0.89851993     1.59900
O70         O  0.62401050  0.28462362  0.84222301    -0.80000
O71         O  0.63776823  0.38524551  0.90086918    -0.78600
C72         C  0.63822105  0.35491925  0.80631681     0.83900
C73         C  0.55342113  0.35454879  0.85156173     0.83600
O74         O  0.61852738  0.39731372  0.86809848    -0.77600
C75         C  0.59878739  0.32208729  0.93222245     0.84400
O76         O  0.62352333  0.36810286  0.81797273    -0.77700
C77         C  0.60449466  0.27498007  0.84978979     0.84500
C78         C  0.68184390  0.32123731  0.88450085     0.84800
O79         O  0.67278818  0.31365310  0.86474498    -0.80100
O80         O  0.29746659  0.88489024  0.63213082    -0.77600
C81         C  0.33686941  0.82413204  0.59747951     0.83400
O82         O  0.26586665  0.81157282  0.66584129    -0.78700
O83         O  0.34856344  0.78641991  0.66542314    -0.80200
O84         O  0.36683950  0.86956760  0.68379471    -0.80000
O85         O  0.31726987  0.89890292  0.66384639    -0.78600
Zn86       Zn  0.30184053  0.84856548  0.63271741     1.55700
O87         O  0.37989715  0.83725005  0.66395386    -0.80000
Cd88       Cd  0.32972525  0.86791155  0.67992903     1.59700
Cd89       Cd  0.29887590  0.81792547  0.68243321     1.59600
O90         O  0.31511234  0.86749000  0.71413651    -0.80000
O91         O  0.31952111  0.83880516  0.66125827    -1.90500
Cd92       Cd  0.34894783  0.82066453  0.65126470     1.59900
O93         O  0.29313396  0.83399183  0.71616703    -0.80000
O94         O  0.35059085  0.81673959  0.61416677    -0.78600
C95         C  0.25711184  0.81880046  0.64594546     0.83900
C96         C  0.30422873  0.90244197  0.64537688     0.83600
O97         O  0.31840831  0.83691047  0.60220145    -0.77600
C98         C  0.38389776  0.85602886  0.67663720     0.84400
O99         O  0.26884636  0.83304526  0.63231941    -0.77700
C100        C  0.30127172  0.85334064  0.72573458     0.84500
C101        C  0.33434240  0.77496210  0.67935877     0.84800
O102        O  0.31520497  0.78468368  0.68748716    -0.80100
N103        N  0.05354508  0.58460643  0.29696834    -0.02600
C104        C  0.06456973  0.56612040  0.28528387     0.00000
C105        C  0.08910240  0.57046047  0.28387524    -0.22900
C106        C  0.09327257  0.59231711  0.29470087    -0.23100
C107        C  0.07124021  0.60056305  0.30267723    -0.00100
H108        H  0.10261692  0.55878365  0.27611563     0.13700
H109        H  0.11048560  0.60137315  0.29636456     0.13700
N110        N  0.05765881  0.37959952  0.22661145    -0.02600
C111        C  0.06714989  0.39794136  0.23983807     0.00000
C112        C  0.09141609  0.39406146  0.24353701    -0.22900
C113        C  0.09685255  0.37239652  0.23299688    -0.23100
C114        C  0.07592131  0.36381746  0.22256499    -0.00100
H115        H  0.10387232  0.40569270  0.25304567     0.13700
H116        H  0.11410537  0.36349799  0.23363363     0.13700
O117        O  0.86465172  0.59882893  0.34425122    -0.77600
C118        C  0.80228365  0.56561734  0.38243388     0.83400
O119        O  0.79113891  0.63601874  0.31464400    -0.78700
O120        O  0.76735473  0.63519681  0.39956557    -0.80200
O121        O  0.85084516  0.64881393  0.41531427    -0.80000
O122        O  0.87946689  0.63005547  0.36445698    -0.78600
Zn123      Zn  0.82814476  0.60116857  0.34879645     1.55700
O124        O  0.81879407  0.62856130  0.42834755    -0.80000
Cd125      Cd  0.84868720  0.64639985  0.37806267     1.59700
Cd126      Cd  0.79750557  0.65100900  0.34852910     1.59600
O127        O  0.84850061  0.68093642  0.36489733    -0.80000
O128        O  0.81876633  0.62912852  0.36780746    -1.90500
Cd129      Cd  0.80070747  0.61882825  0.39730729     1.59900
O130        O  0.81449278  0.68427862  0.34400552    -0.80000
O131        O  0.79527480  0.58197657  0.39699294    -0.78600
C132        C  0.79905407  0.61680536  0.30478217     0.83900
C133        C  0.88255805  0.61150703  0.35121505     0.83600
O134        O  0.81507781  0.57079782  0.36408076    -0.77600
C135        C  0.83781643  0.64081635  0.43246524     0.84400
O136        O  0.81332382  0.60291515  0.31586225    -0.77700
C137        C  0.83428375  0.69307002  0.35181027     0.84500
C138        C  0.75571077  0.64936709  0.38601123     0.84800
O139        O  0.76433115  0.65661108  0.36592689    -0.80100
N140        N  0.86789938  0.26374832  0.93078263    -0.02600
C141        C  0.88685510  0.25127788  0.92187883     0.00000
C142        C  0.88166687  0.24276418  0.89906691    -0.22900
C143        C  0.85857454  0.24997514  0.89393984    -0.23100
C144        C  0.85053888  0.26274463  0.91375109    -0.00100
H145        H  0.89349839  0.23261251  0.88735694     0.13700
H146        H  0.84873721  0.24638030  0.87753841     0.13700
N147        N  0.07424245  0.19838534  0.93023409    -0.02600
C148        C  0.05370774  0.20517365  0.91922697     0.00000
C149        C  0.05830232  0.21122413  0.89556710    -0.22900
C150        C  0.08254281  0.20791466  0.89185839    -0.23100
C151        C  0.09194189  0.20012448  0.91344624    -0.00100
H152        H  0.04546389  0.21767116  0.88254733     0.13700
H153        H  0.09223064  0.21063423  0.87514998     0.13700
O154        O  0.79736977  0.38293246  0.13515395    -0.77600
C155        C  0.83785913  0.32543707  0.09679873     0.83400
O156        O  0.76687682  0.30814677  0.16523871    -0.78700
O157        O  0.84908210  0.28286894  0.16260914    -0.80200
O158        O  0.86957356  0.36453702  0.18389531    -0.80000
O159        O  0.81937244  0.39541854  0.16605539    -0.78600
Zn160      Zn  0.80233790  0.34668672  0.13348905     1.55700
O161        O  0.88113425  0.33275853  0.16257229    -0.80000
Cd162      Cd  0.83212026  0.36367589  0.18064120     1.59700
Cd163      Cd  0.80016529  0.31384778  0.18171305     1.59600
O164        O  0.81800048  0.36199115  0.21502525    -0.80000
O165        O  0.82063287  0.33555732  0.16118318    -1.90500
Cd166      Cd  0.84958434  0.31758549  0.14999675     1.59900
O167        O  0.79488907  0.32923422  0.21573723    -0.80000
O168        O  0.85110000  0.31626329  0.11297005    -0.78600
C169        C  0.75789144  0.31571957  0.14559848     0.83900
C170        C  0.80522098  0.39987147  0.14867194     0.83600
O171        O  0.81950383  0.33799904  0.10232744    -0.77600
C172        C  0.88611702  0.35068088  0.17599525     0.84400
O173        O  0.76951186  0.33040212  0.13225715    -0.77700
C174        C  0.80343822  0.34805852  0.22598825     0.84500
C175        C  0.83533334  0.27090401  0.17650274     0.84800
O176        O  0.81642787  0.28024393  0.18572792    -0.80100
N177        N  0.36095836  0.20252054  0.10580399    -0.02600
C178        C  0.38049990  0.21172072  0.11735353     0.00000
C179        C  0.37347738  0.22143608  0.13926571    -0.22900
C180        C  0.34902107  0.21786450  0.14131650    -0.23100
C181        C  0.34178218  0.20630005  0.12051604    -0.00100
H182        H  0.38495005  0.23009989  0.15243606     0.13700
H183        H  0.33782646  0.22264538  0.15656817     0.13700
N184        N  0.57273656  0.25486788  0.09765397    -0.02600
C185        C  0.55477416  0.24157382  0.10769663     0.00000
C186        C  0.56074369  0.23565087  0.13105985    -0.22900
C187        C  0.58305904  0.24556271  0.13547830    -0.23100
C188        C  0.59000510  0.25728420  0.11470950    -0.00100
H189        H  0.54976424  0.22567949  0.14372100     0.13700
H190        H  0.59310697  0.24444139  0.15206745     0.13700
N191        N  0.24450477  0.90225036  0.91232768    -0.02600
C192        C  0.23002365  0.89402249  0.93021528     0.00000
C193        C  0.21942387  0.87247389  0.92354182    -0.22900
C194        C  0.22737319  0.86741715  0.90062930    -0.23100
C195        C  0.24251982  0.88605741  0.89402001    -0.00100
H196        H  0.20764604  0.86135508  0.93441005     0.13700
H197        H  0.22275046  0.85174077  0.88995461     0.13700
N198        N  0.19700701  0.89637237  0.12379080    -0.02600
C199        C  0.20850945  0.88557520  0.10505682     0.00000
C200        C  0.21990160  0.86496340  0.11282966    -0.22900
C201        C  0.21511377  0.86291090  0.13702051    -0.23100
C202        C  0.20114140  0.88243092  0.14327976    -0.00100
H203        H  0.23040698  0.85262442  0.10199615     0.13700
H204        H  0.22071477  0.84846371  0.14866790     0.13700
O205        O  0.37121141  0.10289937  0.84512156    -0.77600
C206        C  0.31240326  0.06626047  0.88572175     0.83400
O207        O  0.29817593  0.13742297  0.81724455    -0.78700
O208        O  0.27328068  0.13300515  0.90083366    -0.80200
O209        O  0.35676730  0.15054994  0.91917395    -0.80000
O210        O  0.38536951  0.13334257  0.86713680    -0.78600
Zn211      Zn  0.33505826  0.10267484  0.85100863     1.55700
O212        O  0.32379848  0.13125125  0.93121668    -0.80000
Cd213      Cd  0.35458690  0.14811646  0.88179999     1.59700
Cd214      Cd  0.30428349  0.15197957  0.85134435     1.59600
O215        O  0.35382840  0.18266010  0.86907687    -0.80000
O216        O  0.32542875  0.13018977  0.87062096    -1.90500
Cd217      Cd  0.30767988  0.11929537  0.89993958     1.59900
O218        O  0.32038997  0.18576284  0.84760715    -0.80000
O219        O  0.30526353  0.08229300  0.90052929    -0.78600
C220        C  0.30528823  0.11796698  0.80731890     0.83900
C221        C  0.38862551  0.11617743  0.85223113     0.83600
O222        O  0.32425077  0.07155967  0.86673604    -0.77600
C223        C  0.34275187  0.14329586  0.93592346     0.84400
O224        O  0.31922424  0.10361800  0.81831212    -0.77700
C225        C  0.33983249  0.19486772  0.85595707     0.84500
C226        C  0.26180949  0.14752649  0.88754048     0.84800
O227        O  0.27101664  0.15619432  0.86832866    -0.80100
N228        N  0.17250354  0.07268431  0.41692820    -0.02600
C229        C  0.17996513  0.08393762  0.43732648     0.00000
C230        C  0.18405386  0.10807495  0.43291400    -0.22900
C231        C  0.17921585  0.11174639  0.40895995    -0.23100
C232        C  0.17227313  0.08974762  0.39961120    -0.00100
H233        H  0.19031170  0.12146082  0.44566848     0.13700
H234        H  0.18064620  0.12858800  0.39937504     0.13700
N235        N  0.24350806  0.07086614  0.62274748    -0.02600
C236        C  0.23216984  0.08178625  0.60420101     0.00000
C237        C  0.22531072  0.10474932  0.61096328    -0.22900
C238        C  0.23320984  0.10827105  0.63411281    -0.23100
C239        C  0.24444453  0.08729355  0.64082205    -0.00100
H240        H  0.21628141  0.11784425  0.59989842     0.13700
H241        H  0.23159980  0.12459790  0.64466369     0.13700
O242        O  0.13362601  0.07818376  0.13381092    -0.77600
C243        C  0.09280809  0.13809107  0.09919831     0.83400
O244        O  0.16444412  0.15266954  0.16594270    -0.78700
O245        O  0.08054955  0.17707099  0.16757279    -0.80200
O246        O  0.06318085  0.09294754  0.18552451    -0.80000
O247        O  0.11378207  0.06508900  0.16600542    -0.78600
Zn248      Zn  0.12854794  0.11458151  0.13394902     1.55700
O249        O  0.04985559  0.12528619  0.16619608    -0.80000
Cd250      Cd  0.10051611  0.09597807  0.18181257     1.59700
Cd251      Cd  0.13133766  0.14649902  0.18264880     1.59600
O252        O  0.11555519  0.09759479  0.21590690    -0.80000
O253        O  0.11051174  0.12477447  0.16254145    -1.90500
Cd254      Cd  0.08066155  0.14247789  0.15325141     1.59900
O255        O  0.13765021  0.13109739  0.21607361    -0.80000
O256        O  0.07924512  0.14579540  0.11608206    -0.78600
C257        C  0.17339314  0.14497820  0.14617718     0.83900
C258        C  0.12709905  0.06110326  0.14773887     0.83600
O259        O  0.11132670  0.12540975  0.10376977    -0.77600
C260        C  0.04603235  0.10644305  0.17870188     0.84400
O261        O  0.16168529  0.13041818  0.13277994    -0.77700
C262        C  0.12992531  0.11214916  0.22647723     0.84500
C263        C  0.09521296  0.18899408  0.18068331     0.84800
O264        O  0.11492126  0.17976955  0.18774397    -0.80100
N265        N  0.87325910  0.88431097  0.31632446    -0.02600
C266        C  0.86278887  0.90342887  0.30555246     0.00000
C267        C  0.83812042  0.90021642  0.30451775    -0.22900
C268        C  0.83318516  0.87833262  0.31467958    -0.23100
C269        C  0.85498357  0.86886906  0.32171053    -0.00100
H270        H  0.82521695  0.91209220  0.29626335     0.13700
H271        H  0.81573842  0.86960987  0.31546739     0.13700
N272        N  0.87232202  0.08000311  0.22167735    -0.02600
C273        C  0.86043792  0.06069177  0.23099976     0.00000
C274        C  0.83596538  0.06520737  0.23201720    -0.22900
C275        C  0.83263749  0.08800053  0.22346586    -0.23100
C276        C  0.85515246  0.09685250  0.21761757    -0.00100
H277        H  0.82209034  0.05347480  0.23915902     0.13700
H278        H  0.81571654  0.09749489  0.22251084     0.13700
O279        O  0.06356289  0.86430893  0.34699568    -0.77600
C280        C  0.12272850  0.90121480  0.38687609     0.83400
O281        O  0.13948022  0.83369857  0.31672545    -0.78700
O282        O  0.16367324  0.83301891  0.39960647    -0.80200
O283        O  0.08035588  0.81564809  0.41767960    -0.80000
O284        O  0.05081014  0.83203122  0.36696744    -0.78600
Zn285      Zn  0.10004653  0.86494656  0.35163578     1.55700
O286        O  0.11238266  0.83635159  0.43004163    -0.80000
Cd287      Cd  0.08240574  0.81760671  0.38029793     1.59700
Cd288      Cd  0.13262340  0.81659859  0.34931897     1.59600
O289        O  0.08426201  0.78301833  0.36640447    -0.80000
O290        O  0.11096798  0.83705947  0.36975017    -1.90500
Cd291      Cd  0.12933899  0.84771759  0.39887851     1.59900
O292        O  0.11670953  0.78308308  0.34291163    -0.80000
O293        O  0.13188302  0.88488428  0.39998136    -0.78600
C294        C  0.13147669  0.85307590  0.30752055     0.83900
C295        C  0.04663318  0.85023425  0.35380538     0.83600
O296        O  0.10986706  0.89577977  0.36869005    -0.77600
C297        C  0.09361969  0.82389238  0.43457111     0.84400
O298        O  0.11618892  0.86593454  0.31880382    -0.77700
C299        C  0.09818642  0.77242318  0.35147508     0.84500
C300        C  0.17487200  0.81840797  0.38586810     0.84800
O301        O  0.16553620  0.81069693  0.36630747    -0.80100
N302        N  0.38018908  0.38441370  0.80783243    -0.02600
C303        C  0.36814828  0.40445348  0.80079737     0.00000
C304        C  0.34354427  0.40071590  0.80251821    -0.22900
C305        C  0.34015379  0.37790611  0.81105948    -0.23100
C306        C  0.36275787  0.36832111  0.81409853    -0.00100
H307        H  0.32952733  0.41320452  0.79764671     0.13700
H308        H  0.32305233  0.36902673  0.81422331     0.13700
N309        N  0.37696748  0.58650159  0.72496150    -0.02600
C310        C  0.36605851  0.56670592  0.73450964     0.00000
C311        C  0.34136217  0.56979882  0.73514752    -0.22900
C312        C  0.33678265  0.59191987  0.72553855    -0.23100
C313        C  0.35880037  0.60167991  0.71926497    -0.00100
H314        H  0.32809472  0.55734898  0.74222333     0.13700
H315        H  0.31932348  0.60026605  0.72384932     0.13700
N316        N  0.74239444  0.39705563  0.41003679    -0.02600
C317        C  0.73279334  0.38832619  0.43069295     0.00000
C318        C  0.72718958  0.36421349  0.42801922    -0.22900
C319        C  0.73337996  0.35794343  0.40483821    -0.23100
C320        C  0.74261809  0.37843163  0.39423413    -0.00100
H321        H  0.71968626  0.35241997  0.44157911     0.13700
H322        H  0.73178795  0.34027233  0.39673341     0.13700
N323        N  0.68775543  0.40044227  0.61886696    -0.02600
C324        C  0.69407169  0.38940027  0.59796590     0.00000
C325        C  0.70281612  0.36666254  0.60258360    -0.22900
C326        C  0.70168173  0.36355307  0.62705760    -0.23100
C327        C  0.69263988  0.38463209  0.63670622    -0.00100
H328        H  0.70949612  0.35378074  0.58954673     0.13700
H329        H  0.70650049  0.34745265  0.63673037     0.13700
O330        O  0.58172716  0.65223298  0.61663531    -0.77600
C331        C  0.54958530  0.61619607  0.67838562     0.83400
O332        O  0.61838754  0.68840389  0.68693264    -0.78700
O333        O  0.61883509  0.60588102  0.71521771    -0.80200
O334        O  0.63552368  0.58544236  0.63274167    -0.80000
O335        O  0.61331565  0.63240829  0.60234289    -0.78600
Zn336      Zn  0.58436136  0.65050178  0.65283171     1.55700
O337        O  0.61580546  0.57315685  0.66533172    -0.80000
Cd338      Cd  0.63113162  0.62241478  0.63316649     1.59700
Cd339      Cd  0.63465228  0.65489179  0.68219470     1.59600
O340        O  0.66468490  0.63856742  0.63119048    -0.80000
O341        O  0.61315376  0.63336809  0.66243671    -1.90500
Cd342      Cd  0.60344099  0.60444292  0.68146505     1.59900
O343        O  0.66750308  0.66086502  0.66446446    -0.80000
O344        O  0.56622819  0.60227401  0.68554105    -0.78600
C345        C  0.59888403  0.69706787  0.67867289     0.83900
C346        C  0.59424126  0.64447540  0.59897793     0.83600
O347        O  0.55427034  0.63491146  0.66606153    -0.77600
C348        C  0.62829499  0.56863645  0.64659210     0.84400
O349        O  0.58500487  0.68437547  0.66549369    -0.77700
C350        C  0.67617454  0.65338982  0.64444974     0.84500
C351        C  0.63336700  0.62018057  0.72587994     0.84800
O352        O  0.64102440  0.63938268  0.71580299    -0.80100
C353        C  0.67893309  0.42454561  0.62177520    -0.11100
C354        C  0.65636254  0.43128862  0.61267445     0.04400
C355        C  0.64820675  0.45485110  0.61585933    -0.11600
C356        C  0.66226069  0.47191562  0.62814243     0.19300
C357        C  0.68463447  0.46503772  0.63769341    -0.08700
C358        C  0.69280647  0.44148903  0.63441072    -0.01600
H359        H  0.63074229  0.45984378  0.60893619     0.05800
C360        C  0.65282057  0.49648431  0.63172791     0.21200
H361        H  0.71001145  0.43627017  0.64176981     0.11000
C362        C  0.63362191  0.50006524  0.64772118    -0.15000
C363        C  0.62472870  0.52314535  0.65237440     0.04000
C364        C  0.63542310  0.54339301  0.64103145    -0.10300
C365        C  0.65409771  0.53942655  0.62424272    -0.00300
C366        C  0.66264061  0.51627937  0.61942912    -0.05500
H367        H  0.62559645  0.48476039  0.65677667     0.07000
H368        H  0.66239748  0.55441198  0.61493031     0.10400
Br369      Br  0.70413862  0.48690633  0.65610789    -0.05200
Br370      Br  0.63538559  0.40853500  0.59736973    -0.02100
Br371      Br  0.59749157  0.52505171  0.67373537     0.00700
Br372      Br  0.68740660  0.51245424  0.59554932    -0.03700
C373        C  0.69389938  0.39994755  0.57354284    -0.11100
C374        C  0.68344870  0.38713084  0.55423434     0.04400
C375        C  0.68900455  0.39342055  0.53057927    -0.11600
C376        C  0.70512840  0.41222517  0.52565593     0.19300
C377        C  0.71371713  0.42657496  0.54476916    -0.08700
C378        C  0.70800043  0.42041499  0.56860855    -0.01600
H379        H  0.68214291  0.38239731  0.51597543     0.05800
C380        C  0.71589414  0.41297874  0.50126557     0.21200
H381        H  0.71611120  0.43047335  0.58324361     0.11000
C382        C  0.70219027  0.42108737  0.48178428    -0.15000
C383        C  0.70891329  0.41543429  0.45805103     0.04000
C384        C  0.72954005  0.40142328  0.45366746    -0.10300
C385        C  0.74406927  0.39483657  0.47306571    -0.00300
C386        C  0.73745017  0.40049195  0.49668877    -0.05500
H387        H  0.68534046  0.43025870  0.48511029     0.07000
H388        H  0.75960236  0.38352116  0.46997315     0.10400
Br389      Br  0.73474604  0.45339262  0.53905418    -0.05200
Br390      Br  0.66269490  0.35982491  0.55909616    -0.02100
Br391      Br  0.68771980  0.42435888  0.43252882     0.00700
Br392      Br  0.75653008  0.38756411  0.52223390    -0.03700
C393        C  0.40199034  0.59013750  0.71876658    -0.11100
C394        C  0.42051356  0.58901640  0.73600210     0.04400
C395        C  0.44448555  0.59294390  0.72898346    -0.11600
C396        C  0.45027314  0.59888087  0.70514613     0.19300
C397        C  0.43175116  0.60088674  0.68814196    -0.08700
C398        C  0.40794631  0.59624820  0.69494831    -0.01600
H399        H  0.45862646  0.59202418  0.74230351     0.05800
C400        C  0.47566300  0.60339240  0.69841300     0.21200
H401        H  0.39387991  0.59752621  0.68159717     0.11000
C402        C  0.49036611  0.58396821  0.69196577    -0.15000
C403        C  0.51446405  0.58764321  0.68529106     0.04000
C404        C  0.52419623  0.61116994  0.68504320    -0.10300
C405        C  0.50926205  0.63058474  0.69130658    -0.00300
C406        C  0.48524984  0.62684346  0.69807629    -0.05500
H407        H  0.48297021  0.56589532  0.69190021     0.07000
H408        H  0.51639628  0.64876082  0.69127401     0.10400
Br409      Br  0.43808833  0.61043300  0.65559738    -0.05200
Br410      Br  0.41404625  0.58477518  0.76957727    -0.02100
Br411      Br  0.53260869  0.56007490  0.67520183     0.00700
Br412      Br  0.46619040  0.65419847  0.70693640    -0.03700
C413        C  0.37812238  0.42659889  0.78980978    -0.11100
C414        C  0.39229913  0.44340672  0.80256214     0.04400
C415        C  0.39669142  0.46622969  0.79271522    -0.11600
C416        C  0.38597934  0.47311147  0.77093118     0.19300
C417        C  0.37225310  0.45605414  0.75802130    -0.08700
C418        C  0.36890936  0.43301768  0.76726293    -0.01600
H419        H  0.40692396  0.47932142  0.80299776     0.05800
C420        C  0.38610921  0.49875861  0.76360702     0.21200
H421        H  0.35750887  0.42047374  0.75751578     0.11000
C422        C  0.39503676  0.50535868  0.74083325    -0.15000
C423        C  0.39029522  0.52815821  0.73124090     0.04000
C424        C  0.37737455  0.54511334  0.74503394    -0.10300
C425        C  0.37031750  0.53906794  0.76854050    -0.00300
C426        C  0.37417432  0.51613859  0.77772998    -0.05500
H427        H  0.40403331  0.49206959  0.72972813     0.07000
H428        H  0.36003157  0.55178176  0.77920655     0.10400
Br429      Br  0.35470402  0.46403428  0.72945500    -0.05200
Br430      Br  0.40281772  0.43778631  0.83481368    -0.02100
Br431      Br  0.39859627  0.53358866  0.69821428     0.00700
Br432      Br  0.35955282  0.50874611  0.80822259    -0.03700
C433        C  0.89853656  0.88062165  0.32078415    -0.11100
C434        C  0.90700901  0.87659804  0.34430857     0.04400
C435        C  0.93136874  0.87181560  0.34819167    -0.11600
C436        C  0.94774032  0.87123402  0.32897034     0.19300
C437        C  0.93947408  0.87576749  0.30550700    -0.08700
C438        C  0.91500826  0.88041901  0.30155785    -0.01600
H439        H  0.93764757  0.86877876  0.36634777     0.05800
C440        C  0.97337048  0.86611643  0.33400459     0.21200
H441        H  0.90871533  0.88352222  0.28343374     0.11000
C442        C  0.98130413  0.84223618  0.33413001    -0.15000
C443        C  0.00508474  0.83666593  0.34026414     0.04000
C444        C  0.02147175  0.85527377  0.34643059    -0.10300
C445        C  0.01351047  0.87922307  0.34577434    -0.00300
C446        C  0.98965211  0.88467967  0.33987385    -0.05500
H447        H  0.96887334  0.82785065  0.32956855     0.07000
H448        H  0.02573022  0.89374184  0.35046370     0.10400
Br449      Br  0.96101529  0.87576414  0.27848648    -0.05200
Br450      Br  0.88637761  0.87906987  0.37192952    -0.02100
Br451      Br  0.01427216  0.80342642  0.33873436     0.00700
Br452      Br  0.97976304  0.91766312  0.34063526    -0.03700
C453        C  0.87107180  0.03925402  0.24259733    -0.11100
C454        C  0.88574157  0.02250007  0.23036462     0.04400
C455        C  0.89174226  0.00078203  0.24151821    -0.11600
C456        C  0.88161987  0.99442555  0.26383444     0.19300
C457        C  0.86722012  0.01134459  0.27613820    -0.08700
C458        C  0.86280264  0.03367741  0.26583072    -0.01600
H459        H  0.90260409  0.98784186  0.23176887     0.05800
C460        C  0.88308546  0.96921630  0.27242087     0.21200
H461        H  0.85120194  0.04615206  0.27535197     0.11000
C462        C  0.89113690  0.96453613  0.29589092    -0.15000
C463        C  0.88649260  0.94230475  0.30681909     0.04000
C464        C  0.87490134  0.92392794  0.29367639    -0.10300
C465        C  0.86948595  0.92775051  0.26938239    -0.00300
C466        C  0.87300386  0.95019995  0.25881600    -0.05500
H467        H  0.89898820  0.97895088  0.30649939     0.07000
H468        H  0.86030453  0.91380738  0.25919899     0.10400
Br469      Br  0.85007034  0.00396980  0.30533363    -0.05200
Br470      Br  0.89456675  0.02590845  0.19721149    -0.02100
Br471      Br  0.89264522  0.93953026  0.34056890     0.00700
Br472      Br  0.86009518  0.95449993  0.22710537    -0.03700
C473        C  0.02099223  0.10062477  0.18609421    -0.11100
C474        C  0.00622019  0.11826974  0.19685549     0.04400
C475        C  0.98248215  0.11269399  0.20330877    -0.11600
C476        C  0.97293489  0.08968221  0.19923929     0.19300
C477        C  0.98764271  0.07185569  0.18882335    -0.08700
C478        C  0.01159590  0.07732594  0.18255946    -0.01600
H479        H  0.97131806  0.12645913  0.21144372     0.05800
C480        C  0.94725324  0.08526681  0.20507197     0.21200
H481        H  0.02272968  0.06352572  0.17446122     0.11000
C482        C  0.93004683  0.08812374  0.18698692    -0.15000
C483        C  0.90545551  0.08616327  0.19216685     0.04000
C484        C  0.89763441  0.08184477  0.21597069    -0.10300
C485        C  0.91493082  0.07818717  0.23392518    -0.00300
C486        C  0.93958683  0.07982210  0.22861530    -0.05500
H487        H  0.93580845  0.09180639  0.16871923     0.07000
H488        H  0.90918704  0.07426586  0.25213247     0.10400
Br489      Br  0.97555116  0.04002126  0.18276682    -0.05200
Br490      Br  0.01790245  0.14997911  0.20435019    -0.02100
Br491      Br  0.88352803  0.08686266  0.16563345     0.00700
Br492      Br  0.96223426  0.07427041  0.25386580    -0.03700
C493        C  0.12804296  0.92696418  0.39266253    -0.11100
C494        C  0.11703442  0.94650199  0.38064040     0.04400
C495        C  0.12438195  0.97013906  0.38568171    -0.11600
C496        C  0.14232365  0.97495399  0.40265906     0.19300
C497        C  0.15253250  0.95585801  0.41541085    -0.08700
C498        C  0.14547906  0.93219846  0.41034256    -0.01600
H499        H  0.11619266  0.98490590  0.37611908     0.05800
C500        C  0.15044313  0.00000632  0.40654060     0.21200
H501        H  0.15405773  0.91782658  0.42012929     0.11000
C502        C  0.13674801  0.01535786  0.42118354    -0.15000
C503        C  0.14392365  0.03925181  0.42495272     0.04000
C504        C  0.16515681  0.04800403  0.41408548    -0.10300
C505        C  0.17858094  0.03273625  0.39910728    -0.00300
C506        C  0.17143694  0.00886972  0.39533206    -0.05500
H507        H  0.12033406  0.00877714  0.42950501     0.07000
H508        H  0.19468817  0.03946836  0.39036406     0.10400
Br509      Br  0.17620640  0.96135737  0.43989975    -0.05200
Br510      Br  0.09164531  0.94290983  0.35747686    -0.02100
Br511      Br  0.12336392  0.05967616  0.44365983     0.00700
Br512      Br  0.19052740  0.98916382  0.37432217    -0.03700
C513        C  0.16525231  0.08622519  0.37425552    -0.11100
C514        C  0.14208020  0.09247183  0.36642541     0.04400
C515        C  0.13716788  0.09367752  0.34179895    -0.11600
C516        C  0.15518291  0.08891109  0.32471228     0.19300
C517        C  0.17812787  0.08179186  0.33250901    -0.08700
C518        C  0.18301951  0.08049993  0.35718109    -0.01600
H519        H  0.11952088  0.09935160  0.33593953     0.05800
C520        C  0.15032780  0.09413178  0.29914010     0.21200
H521        H  0.20105059  0.07617502  0.36303926     0.11000
C522        C  0.15286064  0.11783527  0.29110251    -0.15000
C523        C  0.14686268  0.12417691  0.26754352     0.04000
C524        C  0.13781648  0.10648492  0.25143227    -0.10300
C525        C  0.13581376  0.08256405  0.25959798    -0.00300
C526        C  0.14204880  0.07633882  0.28314436    -0.05500
H527        H  0.15920701  0.13161173  0.30343600     0.07000
H528        H  0.12929343  0.06854652  0.24764955     0.10400
Br529      Br  0.20363310  0.07531274  0.31009259    -0.05200
Br530      Br  0.11715187  0.10118401  0.38871801    -0.02100
Br531      Br  0.15048658  0.15756261  0.25951880     0.00700
Br532      Br  0.13870420  0.04344705  0.29287742    -0.03700
C533        C  0.18478630  0.07283277  0.46097370    -0.11100
C534        C  0.20526911  0.05847641  0.46469138     0.04400
C535        C  0.21319291  0.05392079  0.48816983    -0.11600
C536        C  0.20098840  0.06354834  0.50813194     0.19300
C537        C  0.17981436  0.07682341  0.50442191    -0.08700
C538        C  0.17192539  0.08135492  0.48102560    -0.01600
H539        H  0.22979008  0.04416580  0.49080899     0.05800
C540        C  0.21271223  0.06376784  0.53203526     0.21200
H541        H  0.15655264  0.09295401  0.47843833     0.11000
C542        C  0.23030812  0.08135527  0.53645957    -0.15000
C543        C  0.23849634  0.08584603  0.55979275     0.04000
C544        C  0.22915109  0.07253939  0.57930856    -0.10300
C545        C  0.21299865  0.05357692  0.57460031    -0.00300
C546        C  0.20473679  0.04914327  0.55111830    -0.05500
H547        H  0.23668824  0.09260117  0.52186893     0.07000
H548        H  0.20547936  0.04329857  0.58928808     0.10400
Br549      Br  0.16273941  0.09162007  0.53064249    -0.05200
Br550      Br  0.22501857  0.04768902  0.43847152    -0.02100
Br551      Br  0.26144374  0.11144721  0.56421161     0.00700
Br552      Br  0.18144319  0.02410644  0.54601908    -0.03700
C553        C  0.34639908  0.22022741  0.85013523    -0.11100
C554        C  0.36614770  0.23249517  0.86099597     0.04400
C555        C  0.37115853  0.25638936  0.85493038    -0.11600
C556        C  0.35699026  0.26859065  0.83831936     0.19300
C557        C  0.33762060  0.25657710  0.82727147    -0.08700
C558        C  0.33248328  0.23267666  0.83317382    -0.01600
H559        H  0.38601336  0.26570737  0.86354331     0.05800
C560        C  0.36181830  0.29426265  0.83367086     0.21200
H561        H  0.31736601  0.22390171  0.82448967     0.11000
C562        C  0.37255099  0.30114433  0.81188636    -0.15000
C563        C  0.37458434  0.32545815  0.80578356     0.04000
C564        C  0.36628464  0.34325446  0.82189336    -0.10300
C565        C  0.35656312  0.33630197  0.84414954    -0.00300
C566        C  0.35421267  0.31201841  0.85008408    -0.05500
H567        H  0.37818849  0.28751612  0.79908265     0.07000
H568        H  0.34957248  0.34980728  0.85640172     0.10400
Br569      Br  0.31714047  0.27244390  0.80468583    -0.05200
Br570      Br  0.38693781  0.21878099  0.88482709    -0.02100
Br571      Br  0.38566630  0.33304661  0.77403747     0.00700
Br572      Br  0.33842207  0.30385513  0.87973451    -0.03700
C573        C  0.25742199  0.08486630  0.66380395    -0.11100
C574        C  0.27911791  0.09751764  0.66759081     0.04400
C575        C  0.28811451  0.10038659  0.69092145    -0.11600
C576        C  0.27579882  0.09064296  0.71072283     0.19300
C577        C  0.25499965  0.07654572  0.70670742    -0.08700
C578        C  0.24591086  0.07383020  0.68335624    -0.01600
H579        H  0.30419538  0.11113205  0.69373465     0.05800
C580        C  0.28354107  0.09731026  0.73540672     0.21200
H581        H  0.22914932  0.06418084  0.68066551     0.11000
C582        C  0.26901506  0.11276232  0.74913677    -0.15000
C583        C  0.27569299  0.11997695  0.77237350     0.04000
C584        C  0.29747632  0.11162856  0.78242470    -0.10300
C585        C  0.31202787  0.09620126  0.76844605    -0.00300
C586        C  0.30533236  0.08919757  0.74514470    -0.05500
H587        H  0.25227611  0.11923621  0.74168700     0.07000
H588        H  0.32882358  0.08958072  0.77561143     0.10400
Br589      Br  0.23806815  0.06132858  0.73268389    -0.05200
Br590      Br  0.29629123  0.11225689  0.64146607    -0.02100
Br591      Br  0.25346034  0.14023155  0.78947800     0.00700
Br592      Br  0.32618990  0.06806154  0.72748765    -0.03700
C593        C  0.14042163  0.86058603  0.28321131    -0.11100
C594        C  0.13562731  0.88343432  0.27291354     0.04400
C595        C  0.14493138  0.88921756  0.25011440    -0.11600
C596        C  0.15912442  0.87286023  0.23719735     0.19300
C597        C  0.16399838  0.85029228  0.24729128    -0.08700
C598        C  0.15470784  0.84434155  0.26993016    -0.01600
H599        H  0.14120888  0.90667883  0.24245146     0.05800
C600        C  0.16884043  0.87938269  0.21319998     0.21200
H601        H  0.15873594  0.82675150  0.27709974     0.11000
C602        C  0.19333465  0.88526084  0.21085298    -0.15000
C603        C  0.20386676  0.88804458  0.18809012     0.04000
C604        C  0.18978959  0.88520965  0.16725097    -0.10300
C605        C  0.16499603  0.88087572  0.16963158    -0.00300
C606        C  0.15450284  0.87778909  0.19239966    -0.05500
H607        H  0.20448063  0.88670271  0.22674765     0.07000
H608        H  0.15407192  0.87835476  0.15370347     0.10400
Br609      Br  0.18297194  0.82676815  0.23053763    -0.05200
Br610      Br  0.11727508  0.90816964  0.28869824    -0.02100
Br611      Br  0.23766400  0.89503365  0.18620250     0.00700
Br612      Br  0.12106399  0.86921790  0.19417577    -0.03700
C613        C  0.18669807  0.92004110  0.12451955    -0.11100
C614        C  0.16517689  0.92553240  0.11250470     0.04400
C615        C  0.15515086  0.94854889  0.11489823    -0.11600
C616        C  0.16630291  0.96619275  0.12929816     0.19300
C617        C  0.18793272  0.96062230  0.14112134    -0.08700
C618        C  0.19790242  0.93775983  0.13862337    -0.01600
H619        H  0.13832762  0.95251792  0.10601488     0.05800
C620        C  0.15466649  0.98985686  0.13306528     0.21200
H621        H  0.21445739  0.93361396  0.14790114     0.11000
C622        C  0.14560686  0.99552647  0.15592951    -0.15000
C623        C  0.13646877  0.01836243  0.16113749     0.04000
C624        C  0.13564849  0.03613575  0.14290077    -0.10300
C625        C  0.14430296  0.03009928  0.11978326    -0.00300
C626        C  0.15379530  0.00726897  0.11482536    -0.05500
H627        H  0.14644034  0.98225762  0.17011576     0.07000
H628        H  0.14406088  0.04330286  0.10552918     0.10400
Br629      Br  0.20464045  0.98364974  0.16084113    -0.05200
Br630      Br  0.14812333  0.90173855  0.09418431    -0.02100
Br631      Br  0.12758377  0.02405477  0.19417099     0.00700
Br632      Br  0.16664422  0.00109364  0.08332146    -0.03700
C633        C  0.30591939  0.04095481  0.89049271    -0.11100
C634        C  0.29578145  0.02618805  0.87241901     0.04400
C635        C  0.28763138  0.00308148  0.87812737    -0.11600
C636        C  0.28921508  0.99436230  0.90166739     0.19300
C637        C  0.29970542  0.00882909  0.91965394    -0.08700
C638        C  0.30787439  0.03200421  0.91400722    -0.01600
H639        H  0.27921013  0.99212970  0.86431046     0.05800
C640        C  0.27806316  0.97087082  0.90717129     0.21200
H641        H  0.31541636  0.04322829  0.92810666     0.11000
C642        C  0.29226420  0.95009795  0.90758889    -0.15000
C643        C  0.28155528  0.92735322  0.91000859     0.04000
C644        C  0.25635348  0.92528300  0.91177218    -0.10300
C645        C  0.24235370  0.94616120  0.91266772    -0.00300
C646        C  0.25297902  0.96883965  0.91022000    -0.05500
H647        H  0.31162375  0.95157092  0.90561896     0.07000
H648        H  0.22298203  0.94467049  0.91445203     0.10400
Br649      Br  0.30214132  0.99806817  0.95226746    -0.05200
Br650      Br  0.29011792  0.03742829  0.84032579    -0.02100
Br651      Br  0.30188850  0.89975189  0.91181187     0.00700
Br652      Br  0.23254500  0.99654661  0.91048881    -0.03700
C653        C  0.22780703  0.90424361  0.95476226    -0.11100
C654        C  0.20502628  0.90979905  0.96443071     0.04400
C655        C  0.20211197  0.91258312  0.98930941    -0.11600
C656        C  0.22164483  0.90971166  0.00493844     0.19300
C657        C  0.24478266  0.90587778  0.99511219    -0.08700
C658        C  0.24774466  0.90347291  0.97013370    -0.01600
H659        H  0.18422791  0.91537162  0.99662182     0.05800
C660        C  0.21661876  0.90551959  0.03082715     0.21200
H661        H  0.26528078  0.89884390  0.96293249     0.11000
C662        C  0.20541934  0.88379712  0.03710858    -0.15000
C663        C  0.20168221  0.87768287  0.06114922     0.04000
C664        C  0.20896965  0.89356916  0.07964371    -0.10300
C665        C  0.21922089  0.91586651  0.07342470    -0.00300
C666        C  0.22315705  0.92188687  0.04916473    -0.05500
H667        H  0.20008329  0.87118934  0.02315535     0.07000
H668        H  0.22504373  0.92817677  0.08742731     0.10400
Br669      Br  0.27221660  0.90043090  0.01516567    -0.05200
Br670      Br  0.17709265  0.91209909  0.94441606    -0.02100
Br671      Br  0.18644307  0.84727066  0.06759298     0.00700
Br672      Br  0.23781510  0.95228153  0.04187543    -0.03700
C673        C  0.31712090  0.19658409  0.11707318    -0.11100
C674        C  0.29710292  0.21197139  0.11589182     0.04400
C675        C  0.27372001  0.20253269  0.11787028    -0.11600
C676        C  0.26991708  0.17781606  0.12132558     0.19300
C677        C  0.28987651  0.16228965  0.12127916    -0.08700
C678        C  0.31325558  0.17170491  0.11899601    -0.01600
H679        H  0.25850498  0.21463323  0.11777981     0.05800
C680        C  0.24538215  0.16897296  0.12744036     0.21200
H681        H  0.32850798  0.15971746  0.12018734     0.11000
C682        C  0.22922069  0.16255042  0.10917178    -0.15000
C683        C  0.20579158  0.15455209  0.11467787     0.04000
C684        C  0.19809749  0.15301634  0.13900814    -0.10300
C685        C  0.21446968  0.15963560  0.15716200    -0.00300
C686        C  0.23784354  0.16740786  0.15157642    -0.05500
H687        H  0.23482161  0.16391034  0.09053189     0.07000
H688        H  0.20916514  0.15857444  0.17590504     0.10400
Br689      Br  0.28603608  0.12835892  0.12604490    -0.05200
Br690      Br  0.30097907  0.24606164  0.11231870    -0.02100
Br691      Br  0.18504422  0.14737341  0.08798580     0.00700
Br692      Br  0.25899875  0.17577558  0.17754262    -0.03700
C693        C  0.34793027  0.15012882  0.96135026    -0.11100
C694        C  0.33754708  0.13789153  0.98121876     0.04400
C695        C  0.34101700  0.14666863  0.00460404    -0.11600
C696        C  0.35467453  0.16747581  0.00885269     0.19300
C697        C  0.36589363  0.17913438  0.98936055    -0.08700
C698        C  0.36247408  0.17047121  0.96591406    -0.01600
H699        H  0.33267624  0.13738836  0.01960402     0.05800
C700        C  0.35658502  0.17686806  0.03373131     0.21200
H701        H  0.37076192  0.18013563  0.95114374     0.11000
C702        C  0.36968423  0.16393500  0.05086268    -0.15000
C703        C  0.37117240  0.17203594  0.07471826     0.04000
C704        C  0.35978353  0.19353804  0.08155992    -0.10300
C705        C  0.34628077  0.20616138  0.06458329    -0.00300
C706        C  0.34438065  0.19788045  0.04089186    -0.05500
H707        H  0.37846969  0.14733070  0.04571815     0.07000
H708        H  0.33700377  0.22241902  0.06994172     0.10400
Br709      Br  0.38606159  0.20691780  0.99395386    -0.05200
Br710      Br  0.31888909  0.10881936  0.97822953    -0.02100
Br711      Br  0.38723394  0.15238566  0.09776147     0.00700
Br712      Br  0.32381982  0.21506958  0.01938269    -0.03700
C713        C  0.40593432  0.21184554  0.10869470    -0.11100
C714        C  0.42454545  0.20383647  0.12383776     0.04400
C715        C  0.44860835  0.20821242  0.11778843    -0.11600
C716        C  0.45492648  0.21999350  0.09638719     0.19300
C717        C  0.43647197  0.22589782  0.08006304    -0.08700
C718        C  0.41216902  0.22217155  0.08645786    -0.01600
H719        H  0.46253745  0.20272861  0.13016449     0.05800
C720        C  0.48087523  0.22603377  0.09238167     0.21200
H721        H  0.39817142  0.22797916  0.07433651     0.11000
C722        C  0.49779539  0.20735429  0.09289194    -0.15000
C723        C  0.52241623  0.21220675  0.09561672     0.04000
C724        C  0.53075811  0.23614902  0.09729169    -0.10300
C725        C  0.51416428  0.25488986  0.09479963    -0.00300
C726        C  0.48938573  0.25006444  0.09277099    -0.05500
H727        H  0.49164244  0.18882760  0.09286193     0.07000
H728        H  0.52020145  0.27335030  0.09679012     0.10400
Br729      Br  0.44359928  0.23834076  0.04870976    -0.05200
Br730      Br  0.41821546  0.18608165  0.15276993    -0.02100
Br731      Br  0.54376258  0.18544111  0.09903981     0.00700
Br732      Br  0.46793838  0.27695402  0.09445577    -0.03700
C733        C  0.73334146  0.30758328  0.13795249    -0.11100
C734        C  0.72210797  0.28650667  0.14704194     0.04400
C735        C  0.69886611  0.28011617  0.13952190    -0.11600
C736        C  0.68633914  0.29404661  0.12282724     0.19300
C737        C  0.69755175  0.31461899  0.11325103    -0.08700
C738        C  0.72076857  0.32120132  0.12076698    -0.01600
H739        H  0.69040390  0.26412831  0.14684777     0.05800
C740        C  0.66122158  0.28717463  0.11666555     0.21200
H741        H  0.72889808  0.33724694  0.11323294     0.11000
C742        C  0.64212455  0.29933253  0.12786552    -0.15000
C743        C  0.61842669  0.29079860  0.12583105     0.04000
C744        C  0.61344823  0.26993051  0.11219386    -0.10300
C745        C  0.63235509  0.25862502  0.09981029    -0.00300
C746        C  0.65610952  0.26704581  0.10200733    -0.05500
H747        H  0.64581601  0.31481908  0.13919676     0.07000
H748        H  0.62891234  0.24235136  0.08961994     0.10400
Br749      Br  0.68192688  0.33395225  0.08956647    -0.05200
Br750      Br  0.73742648  0.26480461  0.16891182    -0.02100
Br751      Br  0.59353670  0.30742384  0.14307073     0.00700
Br752      Br  0.68120467  0.24984733  0.08569745    -0.03700
C753        C  0.84166220  0.24557863  0.18224943    -0.11100
C754        C  0.85681638  0.23149367  0.16720399     0.04400
C755        C  0.86210340  0.20775550  0.17342949    -0.11600
C756        C  0.85231006  0.19732562  0.19416422     0.19300
C757        C  0.83742112  0.21122023  0.20927858    -0.08700
C758        C  0.83227923  0.23508030  0.20331215    -0.01600
H759        H  0.87327565  0.19702369  0.16154205     0.05800
C760        C  0.85588433  0.17133696  0.19847434     0.21200
H761        H  0.82069032  0.24538723  0.21515971     0.11000
C762        C  0.86964356  0.16366103  0.21810308    -0.15000
C763        C  0.87101769  0.13918001  0.22391996     0.04000
C764        C  0.85882093  0.12198272  0.20966384    -0.10300
C765        C  0.84574623  0.12974296  0.18963544    -0.00300
C766        C  0.84429994  0.15408725  0.18390138    -0.05500
H767        H  0.87842405  0.17684852  0.22954215     0.07000
H768        H  0.83574135  0.11679899  0.17893626     0.10400
Br769      Br  0.82259858  0.19796131  0.23754269    -0.05200
Br770      Br  0.86951214  0.24235908  0.13688146    -0.02100
Br771      Br  0.88703952  0.13072593  0.25313940     0.00700
Br772      Br  0.82451766  0.16298701  0.15718949    -0.03700
C773        C  0.79618920  0.35383021  0.25128645    -0.11100
C774        C  0.80044865  0.37665429  0.26219870     0.04400
C775        C  0.79267000  0.38106832  0.28581071    -0.11600
C776        C  0.78062264  0.36335313  0.29904338     0.19300
C777        C  0.77660530  0.34063638  0.28854433    -0.08700
C778        C  0.78432958  0.33604304  0.26496104    -0.01600
H779        H  0.79569391  0.39863229  0.29382022     0.05800
C780        C  0.77153746  0.36922593  0.32343000     0.21200
H781        H  0.78098566  0.31838235  0.25733320     0.11000
C782        C  0.74700541  0.37424242  0.32658661    -0.15000
C783        C  0.73755869  0.37876584  0.34953661     0.04000
C784        C  0.75277957  0.37864996  0.36969208    -0.10300
C785        C  0.77744203  0.37437010  0.36648433    -0.00300
C786        C  0.78687947  0.36960886  0.34353900    -0.05500
H787        H  0.73509155  0.37407056  0.31120509     0.07000
H788        H  0.78916136  0.37360082  0.38198439     0.10400
Br789      Br  0.76086000  0.31526027  0.30590520    -0.05200
Br790      Br  0.81571429  0.40332267  0.24622001    -0.02100
Br791      Br  0.70361068  0.38402610  0.35276715     0.00700
Br792      Br  0.82040537  0.36204822  0.34065646    -0.03700
C793        C  0.08795906  0.14495498  0.07369720    -0.11100
C794        C  0.06688746  0.15728190  0.06640356     0.04400
C795        C  0.06467823  0.16517070  0.04259650    -0.11600
C796        C  0.08289955  0.16098036  0.02564554     0.19300
C797        C  0.10345524  0.14820310  0.03248284    -0.08700
C798        C  0.10584895  0.14031667  0.05620573    -0.01600
H799        H  0.04868138  0.17482085  0.03727734     0.05800
C800        C  0.08038668  0.17047600  0.00099951     0.21200
H801        H  0.12215955  0.13095142  0.06102066     0.11000
C802        C  0.09017219  0.19311817  0.99548970    -0.15000
C803        C  0.08821986  0.20253846  0.97227419     0.04000
C804        C  0.07629641  0.18928654  0.95427163    -0.10300
C805        C  0.06629667  0.16677552  0.95983168    -0.00300
C806        C  0.06839093  0.15725039  0.98298350    -0.05500
H807        H  0.09931218  0.20346663  0.00930067     0.07000
H808        H  0.05713674  0.15652078  0.94597637     0.10400
Br809      Br  0.12883789  0.14141890  0.00997219    -0.05200
Br810      Br  0.04013637  0.16402895  0.08737965    -0.02100
Br811      Br  0.10118413  0.23387315  0.96602002     0.00700
Br812      Br  0.05506644  0.12600408  0.98919395    -0.03700
C813        C  0.11740703  0.19316475  0.91640527    -0.11100
C814        C  0.13611648  0.20914375  0.90991092     0.04400
C815        C  0.15970541  0.20080394  0.90787371    -0.11600
C816        C  0.16506605  0.17662689  0.91214862     0.19300
C817        C  0.14672544  0.16097623  0.92012219    -0.08700
C818        C  0.12304063  0.16932127  0.92223892    -0.01600
H819        H  0.17380712  0.21301771  0.90203570     0.05800
C820        C  0.18942029  0.16786013  0.90612700     0.21200
H821        H  0.10882529  0.15680132  0.92702552     0.11000
C822        C  0.20655306  0.16519717  0.92431083    -0.15000
C823        C  0.23019301  0.15841197  0.91873326     0.04000
C824        C  0.23699527  0.15435553  0.89447395    -0.10300
C825        C  0.21966855  0.15694872  0.87637322    -0.00300
C826        C  0.19603873  0.16345858  0.88204305    -0.05500
H827        H  0.20161067  0.16882623  0.94284944     0.07000
H828        H  0.22446090  0.15366813  0.85773024     0.10400
Br829      Br  0.15296030  0.12774318  0.92646713    -0.05200
Br830      Br  0.13036758  0.24244563  0.90314527    -0.02100
Br831      Br  0.25260954  0.15667606  0.94488915     0.00700
Br832      Br  0.17323546  0.16589835  0.85634837    -0.03700
C833        C  0.86597501  0.27459129  0.95415253    -0.11100
C834        C  0.87115115  0.29912198  0.95774353     0.04400
C835        C  0.86831804  0.30938967  0.98065702    -0.11600
C836        C  0.86071275  0.29522398  0.00010839     0.19300
C837        C  0.85603346  0.27057702  0.99651744    -0.08700
C838        C  0.85836304  0.26055283  0.97357845    -0.01600
H839        H  0.87188074  0.32839288  0.98328553     0.05800
C840        C  0.85622450  0.30634274  0.02382035     0.21200
H841        H  0.85393951  0.24179850  0.97078892     0.11000
C842        C  0.83310788  0.31480948  0.02906044    -0.15000
C843        C  0.82676857  0.32189561  0.05242186     0.04000
C844        C  0.84399861  0.32074447  0.07112376    -0.10300
C845        C  0.86752475  0.31318732  0.06536721    -0.00300
C846        C  0.87365458  0.30595542  0.04201320    -0.05500
H847        H  0.81956712  0.31481392  0.01508090     0.07000
H848        H  0.88113502  0.31226117  0.07922337     0.10400
Br849      Br  0.84615211  0.25003538  0.02242113    -0.05200
Br850      Br  0.88186807  0.31896331  0.93172356    -0.02100
Br851      Br  0.79369508  0.33064306  0.05740729     0.00700
Br852      Br  0.90562255  0.29446361  0.03595871    -0.03700
C853        C  0.91074279  0.24853271  0.93315228    -0.11100
C854        C  0.91591272  0.22878251  0.94801891     0.04400
C855        C  0.93987660  0.22268758  0.95272104    -0.11600
C856        C  0.95896278  0.23567644  0.94233531     0.19300
C857        C  0.95374587  0.25610327  0.92835524    -0.08700
C858        C  0.92980494  0.26250724  0.92417248    -0.01600
H859        H  0.94363434  0.20664186  0.96300918     0.05800
C860        C  0.98333119  0.22491691  0.94177273     0.21200
H861        H  0.92605354  0.27727732  0.91212173     0.11000
C862        C  0.98666239  0.20400052  0.92793635    -0.15000
C863        C  0.00977579  0.19584413  0.92238715     0.04000
C864        C  0.03000768  0.20860711  0.93076906    -0.10300
C865        C  0.02675050  0.22811387  0.94655299    -0.00300
C866        C  0.00353814  0.23628434  0.95217752    -0.05500
H867        H  0.97127158  0.19483106  0.92019680     0.07000
H868        H  0.04222499  0.23798058  0.95316928     0.10400
Br869      Br  0.97836325  0.27360044  0.91139668    -0.05200
Br870      Br  0.89118215  0.20762079  0.95959426    -0.02100
Br871      Br  0.01295113  0.16794088  0.90220376     0.00700
Br872      Br  0.00030211  0.26365251  0.97304151    -0.03700
C873        C  0.79463743  0.54021244  0.38676514    -0.11100
C874        C  0.80355519  0.52045795  0.37316294     0.04400
C875        C  0.79465348  0.49724180  0.37739004    -0.11600
C876        C  0.77700026  0.49303109  0.39491362     0.19300
C877        C  0.76848777  0.51233457  0.40887747    -0.08700
C878        C  0.77722392  0.53560084  0.40473827    -0.01600
H879        H  0.80146802  0.48231275  0.36681678     0.05800
C880        C  0.76787475  0.46828713  0.39848085     0.21200
H881        H  0.77008462  0.55016787  0.41557435     0.11000
C882        C  0.78200029  0.45179138  0.41107268    -0.15000
C883        C  0.77384704  0.42824707  0.41479008     0.04000
C884        C  0.75129310  0.42097338  0.40592188    -0.10300
C885        C  0.73743639  0.43723226  0.39276659    -0.00300
C886        C  0.74554261  0.46081574  0.38903453    -0.05500
H887        H  0.79939643  0.45726431  0.41800334     0.07000
H888        H  0.72025210  0.43153625  0.38553144     0.10400
Br889      Br  0.74511027  0.50763284  0.43396805    -0.05200
Br890      Br  0.82806200  0.52311954  0.34878458    -0.02100
Br891      Br  0.79431440  0.40620419  0.43120763     0.00700
Br892      Br  0.72587065  0.48210800  0.37061456    -0.03700
C893        C  0.84087047  0.71838198  0.34656479    -0.11100
C894        C  0.83440993  0.73002765  0.32500520     0.04400
C895        C  0.84017359  0.75436945  0.32181759    -0.11600
C896        C  0.85250024  0.76736191  0.33967310     0.19300
C897        C  0.85971116  0.75560347  0.36072296    -0.08700
C898        C  0.85397085  0.73135567  0.36398607    -0.01600
H899        H  0.83469818  0.76333019  0.30547907     0.05800
C900        C  0.85586028  0.79355934  0.33689514     0.21200
H901        H  0.85933645  0.72275905  0.38055341     0.11000
C902        C  0.84179078  0.80903700  0.35101070    -0.15000
C903        C  0.84251591  0.83385118  0.34739783     0.04000
C904        C  0.85751446  0.84356794  0.32931186    -0.10300
C905        C  0.87249076  0.82814996  0.31598953    -0.00300
C906        C  0.87175223  0.80327405  0.31967374    -0.05500
H907        H  0.82969690  0.80169156  0.36447900     0.07000
H908        H  0.88389569  0.83528946  0.30185299     0.10400
Br909      Br  0.87743803  0.77199286  0.38547647    -0.05200
Br910      Br  0.81876028  0.71362080  0.29886049    -0.02100
Br911      Br  0.82252672  0.85358136  0.36761289     0.00700
Br912      Br  0.89236639  0.78321378  0.30056750    -0.03700
C913        C  0.07397882  0.33929071  0.21182069    -0.11100
C914        C  0.09203600  0.33039247  0.19615797     0.04400
C915        C  0.09278735  0.30588663  0.19038904    -0.11600
C916        C  0.07562372  0.28985213  0.19965176     0.19300
C917        C  0.05674346  0.29882759  0.21402771    -0.08700
C918        C  0.05605615  0.32335405  0.22005259    -0.01600
H919        H  0.10721233  0.29917611  0.17906380     0.05800
C920        C  0.07909075  0.26371348  0.19570563     0.21200
H921        H  0.04228485  0.32961547  0.23236474     0.11000
C922        C  0.09600700  0.25163652  0.20974739    -0.15000
C923        C  0.10112076  0.22728279  0.20579833     0.04000
C924        C  0.08934290  0.21445733  0.18707648    -0.10300
C925        C  0.07187520  0.22665035  0.17346508    -0.00300
C926        C  0.06678459  0.25099655  0.17760558    -0.05500
H927        H  0.10540701  0.26131927  0.22386732     0.07000
H928        H  0.06247779  0.21742083  0.15906493     0.10400
Br929      Br  0.03250046  0.27794593  0.22710357    -0.05200
Br930      Br  0.11629200  0.35073773  0.18206355    -0.02100
Br931      Br  0.12384075  0.21298013  0.22731607     0.00700
Br932      Br  0.04353068  0.26644952  0.15760639    -0.03700
C933        C  0.03295201  0.37692526  0.21932938    -0.11100
C934        C  0.02662058  0.37629904  0.19483933     0.04400
C935        C  0.00256796  0.37280920  0.18820696    -0.11600
C936        C  0.98451100  0.37014193  0.20573028     0.19300
C937        C  0.99082040  0.37103010  0.23026053    -0.08700
C938        C  0.01488460  0.37458920  0.23686574    -0.01600
H939        H  0.99789449  0.37225663  0.16930701     0.05800
C940        C  0.95940978  0.36554562  0.19798095     0.21200
H941        H  0.01967948  0.37500174  0.25572815     0.11000
C942        C  0.95343147  0.34298396  0.18838519    -0.15000
C943        C  0.92993087  0.33767231  0.18094640     0.04000
C944        C  0.91167680  0.35540228  0.18289657    -0.10300
C945        C  0.91797837  0.37813533  0.19234790    -0.00300
C946        C  0.94154061  0.38328980  0.19973867    -0.05500
H947        H  0.96715088  0.32926082  0.18696984     0.07000
H948        H  0.90455321  0.39211045  0.19392214     0.10400
Br949      Br  0.96738119  0.36644759  0.25527716    -0.05200
Br950      Br  0.05008926  0.38129785  0.16998605    -0.02100
Br951      Br  0.92446494  0.30539910  0.16947914     0.00700
Br952      Br  0.94866923  0.41499207  0.21159272    -0.03700
C953        C  0.06817557  0.62478521  0.31334404    -0.11100
C954        C  0.08035201  0.63120619  0.33463867     0.04400
C955        C  0.08297903  0.65545204  0.34104561    -0.11600
C956        C  0.07363166  0.67359623  0.32644175     0.19300
C957        C  0.06019598  0.66716945  0.30593482    -0.08700
C958        C  0.05748507  0.64286162  0.29955152    -0.01600
H959        H  0.09305409  0.66021448  0.35704031     0.05800
C960        C  0.07930927  0.69903214  0.33221843     0.21200
H961        H  0.04833904  0.63817997  0.28298661     0.11000
C962        C  0.09935910  0.71001259  0.32142874    -0.15000
C963        C  0.10599289  0.73374481  0.32714315     0.04000
C964        C  0.09229341  0.74709299  0.34418237    -0.10300
C965        C  0.07203779  0.73579210  0.35474412    -0.00300
C966        C  0.06559372  0.71209664  0.34894499    -0.05500
H967        H  0.11004497  0.69993232  0.30855801     0.07000
H968        H  0.06105357  0.74532796  0.36775464     0.10400
Br969      Br  0.04637450  0.69110220  0.28558358    -0.05200
Br970      Br  0.09434544  0.60741355  0.35507667    -0.02100
Br971      Br  0.13394913  0.74612320  0.31075469     0.00700
Br972      Br  0.03786714  0.69816888  0.36424811    -0.03700
C973        C  0.02864905  0.58621886  0.30406691    -0.11100
C974        C  0.01039997  0.59009459  0.28707424     0.04400
C975        C  0.98644545  0.59280737  0.29471708    -0.11600
C976        C  0.98035637  0.59143891  0.31923277     0.19300
C977        C  0.99856701  0.58680243  0.33611460    -0.08700
C978        C  0.02251170  0.58450719  0.32849559    -0.01600
H979        H  0.97261200  0.59646912  0.28158079     0.05800
C980        C  0.95529699  0.59641023  0.32712021     0.21200
H981        H  0.03647420  0.58134944  0.34162520     0.11000
C982        C  0.93828541  0.57771178  0.32815019    -0.15000
C983        C  0.91461592  0.58194501  0.33610804     0.04000
C984        C  0.90753851  0.60542640  0.34315932    -0.10300
C985        C  0.92486291  0.62401551  0.34212932    -0.00300
C986        C  0.94841482  0.61969347  0.33419606    -0.05500
H987        H  0.94354505  0.55966364  0.32300902     0.07000
H988        H  0.92003860  0.64218617  0.34725429     0.10400
Br989      Br  0.99147825  0.58363452  0.36973909    -0.05200
Br990      Br  0.01776697  0.59306543  0.25352973    -0.02100
Br991      Br  0.89352590  0.55455024  0.33809984     0.00700
Br992      Br  0.97071591  0.64617418  0.33322051    -0.03700
C993        C  0.05341565  0.54328746  0.27674683    -0.11100
C994        C  0.05938739  0.53385152  0.25388688     0.04400
C995        C  0.05450819  0.50975913  0.24843364    -0.11600
C996        C  0.04280816  0.49467387  0.26502221     0.19300
C997        C  0.03475125  0.50479253  0.28702754    -0.08700
C998        C  0.04028216  0.52882618  0.29279025    -0.01600
H999        H  0.06102039  0.50250042  0.23151633     0.05800
C1000       C  0.04279619  0.46816685  0.26032921     0.21200
H1001       H  0.03548822  0.53573064  0.31040417     0.11000
C1002       C  0.05359918  0.45303512  0.27725444    -0.15000
C1003       C  0.05886055  0.42909388  0.27169740     0.04000
C1004       C  0.05468070  0.42005455  0.24831006    -0.10300
C1005       C  0.04206870  0.43440492  0.23197376    -0.00300
C1006       C  0.03576066  0.45814773  0.23796024    -0.05500
H1007       H  0.05912951  0.46013223  0.29455687     0.07000
H1008       H  0.03829887  0.42769104  0.21405408     0.10400
Br1009     Br  0.01662726  0.48652855  0.31010333    -0.05200
Br1010     Br  0.07476981  0.55294243  0.22947574    -0.02100
Br1011     Br  0.07205732  0.40956996  0.29676686     0.00700
Br1012     Br  0.01798946  0.47626083  0.21479705    -0.03700
C1013       C  0.29645242  0.92756620  0.63993037    -0.11100
C1014       C  0.28107643  0.93345401  0.62049065     0.04400
C1015       C  0.27372444  0.95729181  0.61721562    -0.11600
C1016       C  0.28112204  0.97566590  0.63289757     0.19300
C1017       C  0.29610893  0.96997894  0.65234384    -0.08700
C1018       C  0.30380002  0.94629058  0.65555375    -0.01600
H1019       H  0.26185678  0.96152235  0.60242288     0.05800
C1020       C  0.27174847  0.00031048  0.62944973     0.21200
H1021       H  0.31521390  0.94251812  0.67080497     0.11000
C1022       C  0.24740598  0.00478497  0.63444887    -0.15000
C1023       C  0.23788756  0.02785088  0.63184357     0.04000
C1024       C  0.25262062  0.04678050  0.62367368    -0.10300
C1025       C  0.27690027  0.04237098  0.61843423    -0.00300
C1026       C  0.28654489  0.01929928  0.62123776    -0.05500
H1027       H  0.23589383  0.99036193  0.64084971     0.07000
H1028       H  0.28836431  0.05700496  0.61247256     0.10400
Br1029     Br  0.30537086  0.99367537  0.67584647    -0.05200
Br1030     Br  0.26855655  0.91035682  0.59786261    -0.02100
Br1031     Br  0.20493466  0.03310757  0.64061036     0.00700
Br1032     Br  0.31985655  0.01447879  0.61349944    -0.03700
C1033       C  0.34047165  0.74966264  0.68580609    -0.11100
C1034       C  0.32499323  0.73454590  0.69948107     0.04400
C1035       C  0.33155196  0.71071974  0.70395170    -0.11600
C1036       C  0.35323603  0.70135557  0.69518922     0.19300
C1037       C  0.36879012  0.71614925  0.68185776    -0.08700
C1038       C  0.36244522  0.74002323  0.67736067    -0.01600
H1039       H  0.31945905  0.69923215  0.71412661     0.05800
C1040       C  0.35841732  0.67568048  0.69917593     0.21200
H1041       H  0.37475573  0.75095200  0.66687085     0.11000
C1042       C  0.34691861  0.65853007  0.68462350    -0.15000
C1043       C  0.34843071  0.63405968  0.68990054     0.04000
C1044       C  0.36147572  0.62646764  0.71014467    -0.10300
C1045       C  0.37429595  0.64349941  0.72379113    -0.00300
C1046       C  0.37279281  0.66804197  0.71845775    -0.05500
H1047       H  0.33609585  0.66428131  0.66955822     0.07000
H1048       H  0.38432514  0.63785198  0.73943340     0.10400
Br1049     Br  0.39846685  0.70417407  0.66884814    -0.05200
Br1050     Br  0.29435268  0.74431910  0.71229694    -0.02100
Br1051     Br  0.33215574  0.61168061  0.66909819     0.00700
Br1052     Br  0.38919307  0.69061291  0.73888273    -0.03700
C1053       C  0.25515186  0.88644860  0.87048256    -0.11100
C1054       C  0.24780072  0.90143299  0.85151323     0.04400
C1055       C  0.25631592  0.89718944  0.82804547    -0.11600
C1056       C  0.27204851  0.87807876  0.82316118     0.19300
C1057       C  0.28015795  0.86380868  0.84226613    -0.08700
C1058       C  0.27157818  0.86794260  0.86559574    -0.01600
H1059       H  0.24997418  0.90826069  0.81342465     0.05800
C1060       C  0.27899850  0.87238318  0.79800533     0.21200
H1061       H  0.27699814  0.85598283  0.87989481     0.11000
C1062       C  0.30109470  0.88067436  0.78905769    -0.15000
C1063       C  0.30883421  0.87457621  0.76579555     0.04000
C1064       C  0.29419561  0.85983792  0.75083907    -0.10300
C1065       C  0.27207548  0.85145066  0.76006158    -0.00300
C1066       C  0.26443671  0.85764336  0.78334423    -0.05500
H1067       H  0.31257755  0.89165979  0.80042191     0.07000
H1068       H  0.26051531  0.84019461  0.74905459     0.10400
Br1069     Br  0.30176444  0.83749128  0.83704073    -0.05200
Br1070     Br  0.22446807  0.92628464  0.85620076    -0.02100
Br1071     Br  0.34025902  0.88592192  0.75651169     0.00700
Br1072     Br  0.23414860  0.84526031  0.79460969    -0.03700
C1073       C  0.59301509  0.31365892  0.95697305    -0.11100
C1074       C  0.56922341  0.30885545  0.96490855     0.04400
C1075       C  0.56516425  0.29950628  0.98798363    -0.11600
C1076       C  0.58439581  0.29478491  0.00349076     0.19300
C1077       C  0.60803296  0.29986410  0.99580705    -0.08700
C1078       C  0.61215172  0.30928367  0.97285238    -0.01600
H1079       H  0.54689777  0.29582886  0.99386273     0.05800
C1080       C  0.57964884  0.28429983  0.02752100     0.21200
H1081       H  0.63054179  0.31271827  0.96722930     0.11000
C1082       C  0.58568125  0.26020539  0.03173096    -0.15000
C1083       C  0.58274744  0.25013901  0.05458996     0.04000
C1084       C  0.57379050  0.26422511  0.07365190    -0.10300
C1085       C  0.56735403  0.28815328  0.06943083    -0.00300
C1086       C  0.57003726  0.29820484  0.04649831    -0.05500
H1087       H  0.59303346  0.24933411  0.01726471     0.07000
H1088       H  0.56060466  0.29907342  0.08414076     0.10400
Br1089     Br  0.63526485  0.29442166  0.01618812    -0.05200
Br1090     Br  0.54141720  0.31558526  0.94573160    -0.02100
Br1091     Br  0.59188945  0.21735912  0.05937037     0.00700
Br1092     Br  0.56136101  0.33121540  0.04213943    -0.03700
C1093       C  0.40559192  0.38172521  0.81260941    -0.11100
C1094       C  0.42337420  0.38373717  0.79447819     0.04400
C1095       C  0.44768384  0.37979072  0.80010005    -0.11600
C1096       C  0.45463463  0.37380775  0.82358750     0.19300
C1097       C  0.43694974  0.37245593  0.84173870    -0.08700
C1098       C  0.41276563  0.37615956  0.83612376    -0.01600
H1099       H  0.46116327  0.38090192  0.78600452     0.05800
C1100       C  0.48025417  0.36868064  0.82901969     0.21200
H1101       H  0.39935914  0.37490504  0.85026947     0.11000
C1102       C  0.49681476  0.38770429  0.83082968    -0.15000
C1103       C  0.52067282  0.38368823  0.83797145     0.04000
C1104       C  0.52844297  0.36010543  0.84344154    -0.10300
C1105       C  0.51177549  0.34105202  0.84103590    -0.00300
C1106       C  0.48802066  0.34513903  0.83379877    -0.05500
H1107       H  0.49094952  0.40589754  0.82731304     0.07000
H1108       H  0.51724470  0.32276659  0.84468684     0.10400
Br1109     Br  0.44505178  0.36604313  0.87460518    -0.05200
Br1110     Br  0.41549323  0.39010182  0.76159920    -0.02100
Br1111     Br  0.54093384  0.41152558  0.84140148     0.00700
Br1112     Br  0.46673967  0.31799383  0.83052966    -0.03700
C1113       C  0.64658260  0.36248476  0.78195485    -0.11100
C1114       C  0.64657283  0.38680826  0.77429318     0.04400
C1115       C  0.65471640  0.39272095  0.75113409    -0.11600
C1116       C  0.66278502  0.37492050  0.73514789     0.19300
C1117       C  0.66285618  0.35077422  0.74268325    -0.08700
C1118       C  0.65495388  0.34479272  0.76583807    -0.01600
H1119       H  0.65480360  0.41136259  0.74554653     0.05800
C1120       C  0.67103311  0.38162483  0.71064192     0.21200
H1121       H  0.65500342  0.32605817  0.77108973     0.11000
C1122       C  0.69530794  0.37852827  0.70439293    -0.15000
C1123       C  0.70307444  0.38131371  0.68058926     0.04000
C1124       C  0.68643783  0.38742010  0.66253396    -0.10300
C1125       C  0.66254822  0.39233392  0.66912976    -0.00300
C1126       C  0.65477029  0.38948222  0.69297435    -0.05500
H1127       H  0.70808148  0.37301890  0.71794363     0.07000
H1128       H  0.64950753  0.39682244  0.65546432     0.10400
Br1129     Br  0.67263062  0.32511497  0.72162703    -0.05200
Br1130     Br  0.63674050  0.41317881  0.79449005    -0.02100
Br1131     Br  0.73653435  0.37613768  0.67361706     0.00700
Br1132     Br  0.62132797  0.39433433  0.70004784    -0.03700
C1133       C  0.70692317  0.31404623  0.89102362    -0.11100
C1134       C  0.72071649  0.32606423  0.90894948     0.04400
C1135       C  0.74399398  0.31811829  0.91441907    -0.11600
C1136       C  0.75422274  0.29846561  0.90234446     0.19300
C1137       C  0.74069677  0.28654869  0.88448442    -0.08700
C1138       C  0.71741779  0.29432765  0.87899728    -0.01600
H1139       H  0.75432430  0.32749987  0.92807807     0.05800
C1140       C  0.77915697  0.29088417  0.90817575     0.21200
H1141       H  0.70746006  0.28474061  0.86521690     0.11000
C1142       C  0.78296050  0.26860248  0.91931099    -0.15000
C1143       C  0.80632062  0.25990798  0.92283845     0.04000
C1144       C  0.82633184  0.27358023  0.91528389    -0.10300
C1145       C  0.82260456  0.29627156  0.90510952    -0.00300
C1146       C  0.79927370  0.30506476  0.90169746    -0.05500
H1147       H  0.76767836  0.25761106  0.92456872     0.07000
H1148       H  0.83785258  0.30671814  0.89877783     0.10400
Br1149     Br  0.75355013  0.26000121  0.86645086    -0.05200
Br1150     Br  0.70983673  0.35408546  0.92612014    -0.02100
Br1151     Br  0.81012474  0.22866294  0.93670886     0.00700
Br1152     Br  0.79580119  0.33571971  0.88646028    -0.03700
C1153       C  0.76022301  0.54545998  0.12043323    -0.11100
C1154       C  0.78217826  0.53591854  0.11212901     0.04400
C1155       C  0.78799812  0.51196252  0.11680045    -0.11600
C1156       C  0.77226683  0.49713614  0.12986116     0.19300
C1157       C  0.75041714  0.50670837  0.13852296    -0.08700
C1158       C  0.74455152  0.53074492  0.13376817    -0.01600
H1159       H  0.80505850  0.50492644  0.11049490     0.05800
C1160       C  0.77976522  0.47217183  0.13514017     0.21200
H1161       H  0.72778223  0.53805104  0.14049803     0.11000
C1162       C  0.79733715  0.46836533  0.15266139    -0.15000
C1163       C  0.80604563  0.44527407  0.15742197     0.04000
C1164       C  0.79715202  0.42513229  0.14425752    -0.10300
C1165       C  0.77947895  0.42924869  0.12659299    -0.00300
C1166       C  0.77084906  0.45241175  0.12200123    -0.05500
H1167       H  0.80446171  0.48359156  0.16264424     0.07000
H1168       H  0.77221873  0.41439184  0.11619314     0.10400
Br1169     Br  0.72853615  0.48782052  0.15746901    -0.05200
Br1170     Br  0.80558642  0.55536239  0.09591125    -0.02100
Br1171     Br  0.83028257  0.44341243  0.18193285     0.00700
Br1172     Br  0.74733092  0.45635787  0.09717507    -0.03700
C1173       C  0.79175071  0.61063459  0.27975467    -0.11100
C1174       C  0.79168462  0.58667538  0.27086997     0.04400
C1175       C  0.78512533  0.58194280  0.24702125    -0.11600
C1176       C  0.77870084  0.60055960  0.23149132     0.19300
C1177       C  0.77854148  0.62439815  0.24026611    -0.08700
C1178       C  0.78491444  0.62921526  0.26416477    -0.01600
H1179       H  0.78484143  0.56352230  0.24056178     0.05800
C1180       C  0.77151569  0.59467934  0.20646211     0.21200
H1181       H  0.78494779  0.64769716  0.27042995     0.11000
C1182       C  0.74791042  0.59948158  0.19916307    -0.15000
C1183       C  0.74091374  0.59588258  0.17529961     0.04000
C1184       C  0.75753196  0.58685932  0.15831112    -0.10300
C1185       C  0.78070286  0.58064360  0.16587857    -0.00300
C1186       C  0.78783347  0.58460425  0.18973530    -0.05500
H1187       H  0.73505455  0.60670535  0.21197071     0.07000
H1188       H  0.79376129  0.57415613  0.15288910     0.10400
Br1189     Br  0.77071440  0.65115414  0.22009595    -0.05200
Br1190     Br  0.79909123  0.55920207  0.29027447    -0.02100
Br1191     Br  0.70855777  0.60410627  0.16668988     0.00700
Br1192     Br  0.82062809  0.57802294  0.19797053    -0.03700
C1193       C  0.67699777  0.58778357  0.87054364    -0.11100
C1194       C  0.65519776  0.59951050  0.86561555     0.04400
C1195       C  0.64773423  0.60240206  0.84182118    -0.11600
C1196       C  0.66168631  0.59363984  0.82262141     0.19300
C1197       C  0.68292974  0.58084664  0.82763159    -0.08700
C1198       C  0.69048286  0.57811327  0.85148247    -0.01600
H1199       H  0.63139289  0.61228057  0.83823672     0.05800
C1200       C  0.65467954  0.59970198  0.79765641     0.21200
H1201       H  0.70746809  0.56939549  0.85504662     0.11000
C1202       C  0.66949366  0.61509033  0.78411097    -0.15000
C1203       C  0.66307978  0.62215677  0.76083897     0.04000
C1204       C  0.64116242  0.61393635  0.75070103    -0.10300
C1205       C  0.62641005  0.59848752  0.76445490    -0.10300
C1206       C  0.63294369  0.59141753  0.78763938    -0.05500
H1207       H  0.68620348  0.62168336  0.79174684     0.07000
H1208       H  0.60957286  0.59182525  0.75718323     0.10400
Br1209     Br  0.70237064  0.56716933  0.80251317    -0.05200
Br1210     Br  0.63558449  0.61279525  0.89081524    -0.02100
Br1211     Br  0.68580936  0.64197550  0.74380236     0.00700
Br1212     Br  0.61190661  0.56983615  0.80463461    -0.03700
C1213       C  0.67963214  0.54731279  0.90843463    -0.11100
C1214       C  0.65852901  0.53953177  0.92019323     0.04400
C1215       C  0.65082091  0.51566916  0.91773439    -0.11600
C1216       C  0.66385903  0.49935825  0.90353273     0.19300
C1217       C  0.68467554  0.50729735  0.89130082    -0.08700
C1218       C  0.69242578  0.53113381  0.89389609    -0.01600
H1219       H  0.63449299  0.50984144  0.92675904     0.05800
C1220       C  0.65470542  0.47453031  0.90066397     0.21200
H1221       H  0.70859298  0.53707485  0.88471030     0.11000
C1222       C  0.63399422  0.47056704  0.88692468    -0.15000
C1223       C  0.62514774  0.44729076  0.88293680     0.04000
C1224       C  0.63726723  0.42728709  0.89278238    -0.10300
C1225       C  0.65751244  0.43156432  0.90741578    -0.00300
C1226       C  0.66619143  0.45489476  0.91143925    -0.05500
H1227       H  0.62477544  0.48572096  0.87904742     0.07000
H1228       H  0.66706397  0.41667140  0.91536627     0.10400
Br1229     Br  0.70256121  0.48650689  0.87025484    -0.05200
Br1230     Br  0.63905442  0.56114882  0.93869548    -0.02100
Br1231     Br  0.59607220  0.44462586  0.86455975     0.00700
Br1232     Br  0.69364563  0.45912450  0.93190960    -0.03700
C1233       C  0.70151984  0.56934195  0.95469044    -0.11100
C1234       C  0.72054599  0.55318609  0.95837165     0.04400
C1235       C  0.72684169  0.54666575  0.98182007    -0.11600
C1236       C  0.71464569  0.55635348  0.00179793     0.19300
C1237       C  0.69471510  0.57145477  0.99794234    -0.08700
C1238       C  0.68834651  0.57774277  0.97454008    -0.01600
H1239       H  0.74262365  0.53567046  0.98456720     0.05800
C1240       C  0.72667195  0.55620670  0.02550483     0.21200
H1241       H  0.67407192  0.59065510  0.97190376     0.11000
C1242       C  0.74777845  0.56992110  0.02774662    -0.15000
C1243       C  0.75695097  0.57581592  0.05031002     0.04000
C1244       C  0.74521724  0.56756133  0.07123838    -0.10300
C1245       C  0.72560729  0.55164999  0.06899994    -0.00300
C1246       C  0.71620149  0.54598286  0.04624358    -0.05500
H1247       H  0.75610623  0.57770277  0.01190251     0.07000
H1248       H  0.71633974  0.54531041  0.08496245     0.10400
Br1249     Br  0.67789578  0.58711441  0.02384767    -0.05200
Br1250     Br  0.74084095  0.54265439  0.93246028    -0.02100
Br1251     Br  0.78417198  0.59721241  0.05144556     0.00700
Br1252     Br  0.68818480  0.52576438  0.04438020    -0.03700
C1253       C  0.31505792  0.76067038  0.41674609    -0.11100
C1254       C  0.29454326  0.74631304  0.41204205     0.04400
C1255       C  0.27207364  0.75706129  0.40882520    -0.11600
C1256       C  0.26957339  0.78210571  0.40987165     0.19300
C1257       C  0.28982467  0.79644432  0.41537172    -0.08700
C1258       C  0.31232599  0.78567865  0.41894775    -0.01600
H1259       H  0.25657587  0.74587039  0.40474353     0.05800
C1260       C  0.24595761  0.79278581  0.40381212     0.21200
H1261       H  0.32795292  0.79698505  0.42207003     0.11000
C1262       C  0.22967133  0.79864529  0.42221551    -0.15000
C1263       C  0.20656704  0.80718658  0.41690885     0.04000
C1264       C  0.19939819  0.81010081  0.39264277    -0.10300
C1265       C  0.21594161  0.80428188  0.37430595    -0.00300
C1266       C  0.23897042  0.79575212  0.37970806    -0.05500
H1267       H  0.23477894  0.79602632  0.44080592     0.07000
H1268       H  0.21096444  0.80637795  0.35561368     0.10400
Br1269     Br  0.28784956  0.83083018  0.41637938    -0.05200
Br1270     Br  0.29622398  0.71191797  0.40940395    -0.02100
Br1271     Br  0.18524929  0.81258448  0.44368261     0.00700
Br1272     Br  0.26035952  0.78821377  0.35358365    -0.03700
C1273       C  0.35485060  0.76311751  0.45588867    -0.11100
C1274       C  0.34206638  0.75157352  0.47446022     0.04400
C1275       C  0.33965201  0.76279198  0.49693708    -0.11600
C1276       C  0.34978539  0.78560345  0.50120904     0.19300
C1277       C  0.36270741  0.79707555  0.48260879    -0.08700
C1278       C  0.36515645  0.78578125  0.46015825    -0.01600
H1279       H  0.32984776  0.75370611  0.51115639     0.05800
C1280       C  0.34676090  0.79699717  0.52520138     0.21200
H1281       H  0.37475539  0.79484292  0.44581023     0.11000
C1282       C  0.36669941  0.79942281  0.54042867    -0.15000
C1283       C  0.36425982  0.80905308  0.56367245     0.04000
C1284       C  0.34134746  0.81637031  0.57216662    -0.10300
C1285       C  0.32158913  0.81456527  0.55645754    -0.00300
C1286       C  0.32411445  0.80492967  0.53328426    -0.05500
H1287       H  0.38424895  0.79357261  0.53424346     0.07000
H1288       H  0.30384296  0.82001393  0.56242665     0.10400
Br1289     Br  0.37643106  0.82852973  0.48674860    -0.05200
Br1290     Br  0.32810631  0.72032281  0.46993266    -0.02100
Br1291     Br  0.39312929  0.81232619  0.58233065     0.00700
Br1292     Br  0.29609892  0.80304322  0.51325607    -0.03700
C1293       C  0.58714123  0.65092402  0.57409833    -0.11100
C1294       C  0.59567038  0.63838957  0.55352941     0.04400
C1295       C  0.59090953  0.64725672  0.53052976    -0.11600
C1296       C  0.57758572  0.66831386  0.52745627     0.19300
C1297       C  0.56777710  0.67996439  0.54771414    -0.08700
C1298       C  0.57262628  0.67130653  0.57074368    -0.01600
H1299       H  0.59800693  0.63789316  0.51491652     0.05800
C1300       C  0.57471221  0.67809833  0.50299051     0.21200
H1301       H  0.56556472  0.68107699  0.58610906     0.11000
C1302       C  0.56020405  0.66578194  0.48636340    -0.15000
C1303       C  0.55810877  0.67396091  0.46269453     0.04000
C1304       C  0.57034266  0.69499706  0.45551995    -0.10300
C1305       C  0.58501629  0.70715888  0.47212817    -0.00300
C1306       C  0.58747847  0.69876073  0.49563339    -0.05500
H1307       H  0.55089715  0.64947388  0.49170345     0.07000
H1308       H  0.59488268  0.72305766  0.46657694     0.10400
Br1309     Br  0.54776533  0.70780947  0.54477423    -0.05200
Br1310     Br  0.61330299  0.60880383  0.55516188    -0.02100
Br1311     Br  0.54024094  0.65463243  0.44038458     0.00700
Br1312     Br  0.60957433  0.71519896  0.51657726    -0.03700
C1313       C  0.61319794  0.69880654  0.42001951    -0.11100
C1314       C  0.63307167  0.71448632  0.41749564     0.04400
C1315       C  0.65631047  0.70518305  0.41491214    -0.11600
C1316       C  0.66017303  0.68029117  0.41467420     0.19300
C1317       C  0.64058398  0.66466021  0.41903859    -0.08700
C1318       C  0.61729064  0.67398135  0.42174646    -0.01600
H1319       H  0.67129865  0.71738667  0.41197941     0.05800
C1320       C  0.68429401  0.67119447  0.40768466     0.21200
H1321       H  0.60219035  0.66171564  0.42366320     0.11000
C1322       C  0.70306581  0.67139334  0.42445710    -0.15000
C1323       C  0.72639540  0.66434519  0.41779057     0.04000
C1324       C  0.73136549  0.65729425  0.39377786    -0.10300
C1325       C  0.71253665  0.65737084  0.37699594    -0.00300
C1326       C  0.68916416  0.66401900  0.38380954    -0.05500
H1327       H  0.69959667  0.67728474  0.44274899     0.07000
H1328       H  0.71593811  0.65191622  0.35855845     0.10400
Br1329     Br  0.64470015  0.63047566  0.42004906    -0.05200
Br1330     Br  0.62925686  0.74874719  0.41684429    -0.02100
Br1331     Br  0.75100604  0.66619796  0.44190907     0.00700
Br1332     Br  0.66443724  0.66342397  0.35981081    -0.03700
C1333       C  0.40019985  0.73738713  0.43523224    -0.11100
C1334       C  0.40787164  0.71402141  0.44100297     0.04400
C1335       C  0.43231778  0.70945323  0.44487238    -0.11600
C1336       C  0.44958626  0.72788993  0.44291654     0.19300
C1337       C  0.44167009  0.75163544  0.43886501    -0.08700
C1338       C  0.41712247  0.75620204  0.43518709    -0.01600
H1339       H  0.43808187  0.69110850  0.44772835     0.05800
C1340       C  0.47532802  0.72119279  0.43972085     0.21200
H1341       H  0.41159531  0.77411775  0.43013273     0.11000
C1342       C  0.48155494  0.70799804  0.41907710    -0.15000
C1343       C  0.50558394  0.70344742  0.41328971     0.04000
C1344       C  0.52418325  0.71237844  0.42813736    -0.10300
C1345       C  0.51799467  0.72410180  0.44975108    -0.00300
C1346       C  0.49372364  0.72835619  0.45571494    -0.05500
H1347       H  0.46760021  0.70177757  0.40694290     0.07000
H1348       H  0.53202025  0.73080427  0.46152458     0.10400
Br1349     Br  0.46386237  0.77786336  0.43465469    -0.05200
Br1350     Br  0.38579618  0.68736379  0.44149168    -0.02100
Br1351     Br  0.51189037  0.68465074  0.38486561     0.00700
Br1352     Br  0.48650323  0.74388236  0.48573346    -0.03700
C1353       C  0.07324729  0.77243003  0.57890658    -0.11100
C1354       C  0.06390605  0.79519058  0.57343355     0.04400
C1355       C  0.06625190  0.80428482  0.55007093    -0.11600
C1356       C  0.07796024  0.79092235  0.53202968     0.19300
C1357       C  0.08814037  0.76853148  0.53787171    -0.08700
C1358       C  0.08558815  0.75944220  0.56113021    -0.01600
H1359       H  0.05892892  0.82179499  0.54594732     0.05800
C1360       C  0.07995885  0.80076548  0.50739194     0.21200
H1361       H  0.09326965  0.74214854  0.56548122     0.11000
C1362       C  0.09432313  0.82113443  0.50331542    -0.15000
C1363       C  0.09811417  0.82985289  0.47998591     0.04000
C1364       C  0.08770125  0.81772660  0.46001059    -0.10300
C1365       C  0.07213858  0.79815811  0.46449056    -0.00300
C1366       C  0.06805696  0.78983867  0.48786893    -0.05500
H1367       H  0.10292733  0.83010688  0.51837327     0.07000
H1368       H  0.06344328  0.78883749  0.44971255     0.10400
Br1369     Br  0.10651492  0.75013940  0.51504415    -0.05200
Br1370     Br  0.04908007  0.81478891  0.59766646    -0.02100
Br1371     Br  0.11701227  0.85879173  0.47723281     0.00700
Br1372     Br  0.04583101  0.76365103  0.49232582    -0.03700
C1373       C  0.11447446  0.76610028  0.61537955    -0.11100
C1374       C  0.13416520  0.75047592  0.61822642     0.04400
C1375       C  0.15743594  0.75987011  0.62090198    -0.11600
C1376       C  0.16151560  0.78476900  0.62080501     0.19300
C1377       C  0.14210481  0.80034497  0.61661402    -0.08700
C1378       C  0.11879218  0.79095873  0.61387305    -0.01600
H1379       H  0.17232195  0.74774202  0.62384233     0.05800
C1380       C  0.18572522  0.79409809  0.62705489     0.21200
H1381       H  0.10385165  0.80320993  0.61194677     0.11000
C1382       C  0.20202443  0.80039421  0.60881891    -0.15000
C1383       C  0.22530947  0.80855710  0.61437894     0.04000
C1384       C  0.23262050  0.81052667  0.63875216    -0.10300
C1385       C  0.21608554  0.80412563  0.65688003    -0.00300
C1386       C  0.19287995  0.79608962  0.65122408    -0.05500
H1387       H  0.19668496  0.79866285  0.59016175     0.07000
H1388       H  0.22112625  0.80556596  0.67564029     0.10400
Br1389     Br  0.14644183  0.83457157  0.61624685    -0.05200
Br1390     Br  0.13020580  0.71617608  0.61870203    -0.02100
Br1391     Br  0.24638419  0.81519904  0.58767748     0.00700
Br1392     Br  0.17136234  0.78825954  0.67714691    -0.03700
C1393       C  0.81561893  0.71071799  0.60756941    -0.11100
C1394       C  0.79486767  0.72511440  0.60992080     0.04400
C1395       C  0.77233915  0.71437823  0.61362887    -0.11600
C1396       C  0.76994332  0.68934069  0.61492153     0.19300
C1397       C  0.79028217  0.67484638  0.61083031    -0.08700
C1398       C  0.81294959  0.68557211  0.60724139    -0.01600
H1399       H  0.75669295  0.72565001  0.61628116     0.05800
C1400       C  0.74644322  0.67900469  0.62236793     0.21200
H1401       H  0.82865058  0.67423727  0.60547708     0.11000
C1402       C  0.72920703  0.67312703  0.60497092    -0.15000
C1403       C  0.70624041  0.66488622  0.61168411     0.04000
C1404       C  0.70025743  0.66213733  0.63636485    -0.10300
C1405       C  0.71764173  0.66824720  0.65369535    -0.00300
C1406       C  0.74047855  0.67665411  0.64688427    -0.05500
H1407       H  0.73346787  0.67550535  0.58608854     0.07000
H1408       H  0.71348734  0.66646764  0.67266595     0.10400
Br1409     Br  0.78799210  0.64044081  0.61121118    -0.05200
Br1410     Br  0.79617233  0.75957215  0.60824976    -0.02100
Br1411     Br  0.68344219  0.65978882  0.58621708     0.00700
Br1412     Br  0.76291283  0.68524633  0.67166903    -0.03700
C1413       C  0.85745080  0.70431672  0.57106362    -0.11100
C1414       C  0.84575095  0.71411776  0.55104720     0.04400
C1415       C  0.84390986  0.70079567  0.52978857    -0.11600
C1416       C  0.85375606  0.67769824  0.52808009     0.19300
C1417       C  0.86581274  0.66795842  0.54797576    -0.08700
C1418       C  0.86754057  0.68130513  0.56936539    -0.01600
H1419       H  0.83480128  0.70848860  0.51446531     0.05800
C1420       C  0.85115211  0.66446049  0.50515660     0.21200
H1421       H  0.87642207  0.67365070  0.58481299     0.11000
C1422       C  0.86991404  0.66515512  0.48828150    -0.15000
C1423       C  0.86661027  0.65636766  0.46484987     0.04000
C1424       C  0.84388103  0.64698763  0.45786552    -0.10300
C1425       C  0.82565667  0.64501529  0.47549398    -0.00300
C1426       C  0.82916229  0.65360962  0.49890037    -0.05500
H1427       H  0.88700357  0.67325551  0.49317111     0.07000
H1428       H  0.80818261  0.63762119  0.47090474     0.10400
Br1429     Br  0.87958882  0.63645567  0.54678627    -0.05200
Br1430     Br  0.83254656  0.74584017  0.55186445    -0.02100
Br1431     Br  0.89406414  0.65771637  0.44375525     0.00700
Br1432     Br  0.80319992  0.65090676  0.52164793    -0.03700
C1433       C  0.90182745  0.73238198  0.59059324    -0.11100
C1434       C  0.91061643  0.75450454  0.58182855     0.04400
C1435       C  0.93545172  0.75828217  0.57920943    -0.11600
C1436       C  0.95183406  0.74012063  0.58499195     0.19300
C1437       C  0.94290858  0.71727838  0.59161255    -0.08700
C1438       C  0.91805855  0.71357599  0.59439716    -0.01600
H1439       H  0.94205726  0.77592262  0.57415035     0.05800
C1440       C  0.97740574  0.74665081  0.58929377     0.21200
H1441       H  0.91161444  0.69661840  0.60152012     0.11000
C1442       C  0.98295165  0.75858252  0.61083618    -0.15000
C1443       C  0.00680791  0.76230035  0.61779110     0.04000
C1444       C  0.02582631  0.75393156  0.60312996    -0.10300
C1445       C  0.02034883  0.74348700  0.58069185    -0.00300
C1446       C  0.99627348  0.73987874  0.57368640    -0.05500
H1447       H  0.96857170  0.76428178  0.62276902     0.07000
H1448       H  0.03471330  0.73705032  0.56915348     0.10400
Br1449     Br  0.96410298  0.69154788  0.59996600    -0.05200
Br1450     Br  0.88937100  0.78062718  0.57496044    -0.02100
Br1451     Br  0.01233463  0.77877225  0.64774113     0.00700
Br1452     Br  0.98983501  0.72512674  0.54314135    -0.03700
C1453       C  0.53413276  0.09034952  0.80654796    -0.11100
C1454       C  0.52693017  0.09420527  0.83063020     0.04400
C1455       C  0.50269074  0.09797809  0.83613535    -0.11600
C1456       C  0.48518794  0.09747091  0.81810159     0.19300
C1457       C  0.49215311  0.09302804  0.79411450    -0.08700
C1458       C  0.51650996  0.08958168  0.78849871    -0.01600
H1459       H  0.49737996  0.10102539  0.85468033     0.05800
C1460       C  0.45990896  0.10206705  0.82497966     0.21200
H1461       H  0.52180365  0.08659298  0.76995803     0.11000
C1462       C  0.45284192  0.12573452  0.82983045    -0.15000
C1463       C  0.42971757  0.13076972  0.83847077     0.04000
C1464       C  0.41317995  0.11175342  0.84266287    -0.10300
C1465       C  0.42020057  0.08808188  0.83718530    -0.00300
C1466       C  0.44339651  0.08314781  0.82857914    -0.05500
H1467       H  0.46548468  0.14037424  0.82700033     0.07000
H1468       H  0.40779272  0.07327862  0.84013434     0.10400
Br1469     Br  0.46909787  0.09190434  0.76855538    -0.05200
Br1470     Br  0.54893847  0.09265448  0.85700393    -0.02100
Br1471     Br  0.42170736  0.16410078  0.84290924     0.00700
Br1472     Br  0.45215358  0.05028130  0.82292153    -0.03700
C1473       C  0.59855581  0.24964272  0.84371344    -0.11100
C1474       C  0.60551197  0.23856191  0.82183791     0.04400
C1475       C  0.59881030  0.21465528  0.81721553    -0.11600
C1476       C  0.58526010  0.20148280  0.83400265     0.19300
C1477       C  0.57829369  0.21243066  0.85571672    -0.08700
C1478       C  0.58483857  0.23628057  0.86036644    -0.01600
H1479       H  0.60430388  0.20621086  0.80047389     0.05800
C1480       C  0.58003623  0.17587184  0.82912800     0.21200
H1481       H  0.57931027  0.24434685  0.87727834     0.11000
C1482       C  0.59444097  0.15850220  0.83999207    -0.15000
C1483       C  0.59243489  0.13432455  0.83341904     0.04000
C1484       C  0.57584158  0.12718718  0.81555531    -0.10300
C1485       C  0.56021037  0.14437038  0.80591619    -0.00300
C1486       C  0.56219461  0.16863936  0.81265694    -0.05500
H1487       H  0.60787256  0.16390808  0.85305706     0.07000
H1488       H  0.54735227  0.13917042  0.79222508     0.10400
Br1489     Br  0.55964706  0.19553701  0.87940280    -0.05200
Br1490     Br  0.62302138  0.25518602  0.79706283    -0.02100
Br1491     Br  0.61298183  0.11178362  0.84930421     0.00700
Br1492     Br  0.54075151  0.19148304  0.79861878    -0.03700
C1493       C  0.57347227  0.84838939  0.69494061    -0.11100
C1494       C  0.58596426  0.83770339  0.67549399     0.04400
C1495       C  0.58697478  0.81265513  0.67343450    -0.11600
C1496       C  0.57541236  0.79787106  0.69027604     0.19300
C1497       C  0.56153995  0.80841073  0.70869205    -0.08700
C1498       C  0.56076812  0.83349701  0.71101018    -0.01600
H1499       H  0.59728779  0.80463584  0.65890812     0.05800
C1500       C  0.57949763  0.77164600  0.68905284     0.21200
H1501       H  0.55112766  0.84127449  0.72607995     0.11000
C1502       C  0.59743948  0.76154474  0.70340869    -0.15000
C1503       C  0.60378621  0.73728201  0.70098213     0.04000
C1504       C  0.59209271  0.72259041  0.68361608    -0.10300
C1505       C  0.57344932  0.73282570  0.66991145    -0.00300
C1506       C  0.56718217  0.75703033  0.67250293    -0.05500
H1507       H  0.60689470  0.77277575  0.71630152     0.07000
H1508       H  0.56391512  0.72214046  0.65664361     0.10400
Br1509     Br  0.54381589  0.78917763  0.73123155    -0.05200
Br1510     Br  0.60170456  0.85632549  0.65099340    -0.02100
Br1511     Br  0.62830557  0.72585950  0.72228495     0.00700
Br1512     Br  0.54183859  0.76953658  0.65293899    -0.03700
C1513       C  0.53281543  0.88423977  0.70614585    -0.11100
C1514       C  0.51756901  0.88228061  0.72633170     0.04400
C1515       C  0.49294165  0.87764512  0.72309262    -0.11600
C1516       C  0.48343447  0.87492205  0.69986137     0.19300
C1517       C  0.49879620  0.87662072  0.67977352    -0.08700
C1518       C  0.52331355  0.88088527  0.68304966    -0.01600
H1519       H  0.48126083  0.87596415  0.73863075     0.05800
C1520       C  0.45756122  0.86995978  0.69649757     0.21200
H1521       H  0.53504284  0.88220627  0.66750900     0.11000
C1522       C  0.44161574  0.88922445  0.69418983    -0.15000
C1523       C  0.41750526  0.88527149  0.68793939     0.04000
C1524       C  0.40905257  0.86154302  0.68380936    -0.10300
C1525       C  0.42512932  0.84229729  0.68668143    -0.00300
C1526       C  0.44913150  0.84634136  0.69303253    -0.05500
H1527       H  0.44817794  0.90747820  0.69649728     0.07000
H1528       H  0.41903005  0.82394696  0.68395604     0.10400
Br1529     Br  0.48694554  0.87368667  0.64751096    -0.05200
Br1530     Br  0.52995704  0.88419260  0.75838881    -0.02100
Br1531     Br  0.39784523  0.91320358  0.68359597     0.00700
Br1532     Br  0.47002526  0.81917490  0.69622762    -0.03700
C1533       C  0.55632599  0.04758449  0.77726800    -0.11100
C1534       C  0.54743810  0.02912689  0.79217750     0.04400
C1535       C  0.54201134  0.00648980  0.78228192    -0.11600
C1536       C  0.54673350  0.00141790  0.75789387     0.19300
C1537       C  0.55395609  0.02048374  0.74272282    -0.08700
C1538       C  0.55834765  0.04329716  0.75246507    -0.01600
H1539       H  0.53626800  0.99212814  0.79412642     0.05800
C1540       C  0.54803039  0.97593925  0.74950947     0.21200
H1541       H  0.56538527  0.05730459  0.74086342     0.11000
C1542       C  0.53526545  0.96839704  0.72897353    -0.15000
C1543       C  0.54058067  0.94648662  0.71746157     0.04000
C1544       C  0.55786301  0.93097987  0.72745168    -0.10300
C1545       C  0.56874753  0.93755157  0.74926265    -0.00300
C1546       C  0.56445961  0.95983940  0.76001719    -0.05500
H1547       H  0.52250425  0.98047703  0.72076076     0.07000
H1548       H  0.58219120  0.92593326  0.75708325     0.10400
Br1549     Br  0.56152259  0.01603598  0.70923866    -0.05200
Br1550     Br  0.54633890  0.03240293  0.82648720    -0.02100
Br1551     Br  0.52640636  0.94081933  0.68660143     0.00700
Br1552     Br  0.58429366  0.96820971  0.78708586    -0.03700
loop_ 
_geom_bond_atom_site_label_1 
_geom_bond_atom_site_label_2 
_geom_bond_distance 
_geom_bond_site_symmetry_2 
_ccdc_geom_bond_type 
N1            C5   1.358       .  A
N1            C2   1.359       .  A
N1         C1513   1.436       .  S
C2            C3   1.384       .  A
C2         C1544   1.486       .  S
C3            C4   1.373       .  A
C3            H6   1.082       .  S
C4            C5   1.382       .  A
C4            H7   1.082       .  S
C5         C1493   1.486       .  S
N8           C12   1.360       .  A
N8            C9   1.359       .  A
N8         C1453   1.442       .  S
C9           C10   1.382       .  A
C9         C1533   1.481       .  S
C10          C11   1.371       .  A
C10          H13   1.082       .  S
C11          C12   1.382       .  A
C11          H14   1.082       .  S
C12        C1484   1.481       .  S
N15          C19   1.358       .  A
N15          C16   1.356       .  A
N15        C1413   1.434       .  S
C16          C17   1.382       .  A
C16        C1433   1.481       .  S
C17          C18   1.376       .  A
C17          H20   1.082       .  S
C18          C19   1.383       .  A
C18          H21   1.082       .  S
C19        C1393   1.486       .  S
N22          C26   1.357       .  A
N22          C23   1.358       .  A
N22        C1353   1.436       .  S
C23          C24   1.384       .  A
C23        C1444   1.486       .  S
C24          C25   1.375       .  A
C24          H27   1.082       .  S
C25          C26   1.382       .  A
C25          H28   1.082       .  S
C26        C1373   1.483       .  S
N29          C33   1.358       .  A
N29          C30   1.360       .  A
N29        C1304   1.438       .  S
C30          C31   1.384       .  A
C30        C1344   1.487       .  S
C31          C32   1.374       .  A
C31          H34   1.082       .  S
C32          C33   1.381       .  A
C32          H35   1.082       .  S
C33        C1313   1.484       .  S
N36          C40   1.359       .  A
N36          C37   1.357       .  A
N36        C1273   1.437       .  S
C37          C38   1.382       .  A
C37        C1333   1.482       .  S
C38          C39   1.375       .  A
C38          H41   1.082       .  S
C39          C40   1.383       .  A
C39          H42   1.082       .  S
C40        C1253   1.485       .  S
N43          C47   1.354       .  A
N43          C44   1.354       .  A
N43        C1213   1.436       .  S
C44          C45   1.382       .  A
C44        C1233   1.476       .  S
C45          C46   1.376       .  A
C45          H48   1.082       .  S
C46          C47   1.382       .  A
C46          H49   1.082       .  S
C47        C1193   1.475       .  S
N50          C54   1.358       .  A
N50          C51   1.357       .  A
N50        C1153   1.441       .  S
C51          C52   1.382       .  A
C51        C1244   1.476       .  S
C52          C53   1.371       .  A
C52          H55   1.082       .  S
C53          C54   1.382       .  A
C53          H56   1.082       .  S
C54        C1184   1.477       .  S
O57          C73   1.276       .  A
O57         Zn63   2.046       .  S
C58        C1224   1.488       .  S
C58          O74   1.275       .  A
C58          O71   1.276       .  A
O59          C72   1.278       .  A
O59         Cd66   2.086       .  S
O60          C78   1.274       .  A
O60         Cd69   2.078       .  S
O61          C75   1.275       .  A
O61         Cd65   2.080       .  S
O62          C73   1.276       .  A
O62         Cd65   2.080       .  S
Zn63         O74   2.022       .  S
Zn63         O76   2.021       .  S
Zn63         O68   1.951       .  S
O64          C75   1.276       .  A
O64         Cd69   2.078       .  S
Cd65         O67   2.052       .  S
Cd65         O68   1.999       .  S
Cd66         O70   2.089       .  S
Cd66         O79   2.094       .  S
Cd66         O68   2.014       .  S
O67          C77   1.274       .  A
O68         Cd69   2.004       .  S
Cd69         O71   2.071       .  S
O70          C77   1.277       .  A
C72        C1113   1.491       .  S
C72          O76   1.273       .  A
C73        C1104   1.495       .  S
C75        C1073   1.489       .  S
C77        C1473   1.483       .  S
C78        C1133   1.498       .  S
C78          O79   1.278       .  A
O80          C96   1.275       .  A
O80         Zn86   2.036       .  S
C81        C1284   1.490       .  S
C81          O97   1.277       .  A
C81          O94   1.274       .  A
O82          C95   1.278       .  A
O82         Cd89   2.084       .  S
O83         C101   1.274       .  A
O83         Cd92   2.064       .  S
O84          C98   1.275       .  A
O84         Cd88   2.075       .  S
O85          C96   1.276       .  A
O85         Cd88   2.069       .  S
Zn86         O97   2.031       .  S
Zn86         O99   2.022       .  S
Zn86         O91   1.950       .  S
O87          C98   1.276       .  A
O87         Cd92   2.071       .  S
Cd88         O90   2.064       .  S
Cd88         O91   1.999       .  S
Cd89         O93   2.097       .  S
Cd89        O102   2.084       .  S
Cd89         O91   2.009       .  S
O90         C100   1.273       .  A
O91         Cd92   2.001       .  S
Cd92         O94   2.074       .  S
O93         C100   1.279       .  A
C95        C1384   1.489       .  S
C95          O99   1.274       .  A
C96        C1013   1.497       .  S
C98        C1524   1.485       .  S
C100       C1064   1.491       .  S
C101       C1033   1.495       .  S
C101        O102   1.275       .  A
N103        C107   1.358       .  A
N103        C104   1.360       .  A
N103        C973   1.440       .  S
C104        C105   1.385       .  A
C104        C993   1.486       .  S
C105        C106   1.372       .  A
C105        H108   1.082       .  S
C106        C107   1.380       .  A
C106        H109   1.082       .  S
C107        C953   1.479       .  S
N110        C114   1.362       .  A
N110        C111   1.359       .  A
N110        C933   1.439       .  S
C111        C112   1.383       .  A
C111       C1004   1.488       .  S
C112        C113   1.371       .  A
C112        H115   1.082       .  S
C113        C114   1.383       .  A
C113        H116   1.082       .  S
C114        C913   1.490       .  S
O117        C133   1.276       .  A
O117       Zn123   2.048       .  S
C118        C873   1.493       .  S
C118        O134   1.274       .  A
C118        O131   1.276       .  A
O119        C132   1.278       .  A
O119       Cd126   2.086       .  S
O120        C138   1.274       .  A
O120       Cd129   2.072       .  S
O121        C135   1.275       .  A
O121       Cd125   2.078       .  S
O122        C133   1.276       .  A
O122       Cd125   2.079       .  S
Zn123       O134   2.024       .  S
Zn123       O136   2.013       .  S
Zn123       O128   1.947       .  S
O124        C135   1.275       .  A
O124       Cd129   2.068       .  S
Cd125       O127   2.059       .  S
Cd125       O128   1.999       .  S
Cd126       O130   2.088       .  S
Cd126       O139   2.102       .  S
Cd126       O128   2.016       .  S
O127        C137   1.274       .  A
O128       Cd129   2.003       .  S
Cd129       O131   2.069       .  S
O130        C137   1.277       .  A
C132       C1173   1.489       .  S
C132        O136   1.273       .  A
C133        C984   1.496       .  S
C135       C1424   1.491       .  S
C137        C893   1.482       .  S
C138       C1324   1.486       .  S
C138        O139   1.279       .  A
N140        C144   1.355       .  A
N140        C141   1.355       .  A
N140        C833   1.433       .  S
C141        C142   1.382       .  A
C141        C853   1.479       .  S
C142        C143   1.378       .  A
C142        H145   1.082       .  S
C143        C144   1.381       .  A
C143        H146   1.082       .  S
C144       C1144   1.479       .  S
N147        C151   1.356       .  A
N147        C148   1.353       .  A
N147        C804   1.436       .  S
C148        C149   1.381       .  A
C148        C864   1.475       .  S
C149        C150   1.375       .  A
C149        H152   1.082       .  S
C150        C151   1.383       .  A
C150        H153   1.082       .  S
C151        C813   1.479       .  S
O154        C170   1.278       .  A
O154       Zn160   2.037       .  S
C155        C844   1.488       .  S
C155        O171   1.275       .  A
C155        O168   1.274       .  A
O156        C169   1.277       .  A
O156       Cd163   2.089       .  S
O157        C175   1.272       .  A
O157       Cd166   2.057       .  S
O158        C172   1.278       .  A
O158       Cd162   2.090       .  S
O159        C170   1.274       .  A
O159       Cd162   2.075       .  S
Zn160       O171   2.031       .  S
Zn160       O173   2.033       .  S
Zn160       O165   1.953       .  S
O161        C172   1.272       .  A
O161       Cd166   2.064       .  S
Cd162       O164   2.065       .  S
Cd162       O165   2.000       .  S
Cd163       O167   2.092       .  S
Cd163       O176   2.093       .  S
Cd163       O165   2.010       .  S
O164        C174   1.273       .  A
O165       Cd166   1.994       .  S
Cd166       O168   2.060       .  S
O167        C174   1.279       .  A
C169        C733   1.497       .  S
C169        O173   1.276       .  A
C170       C1164   1.499       .  S
C172        C944   1.494       .  S
C174        C773   1.495       .  S
C175        C753   1.490       .  S
C175        O176   1.278       .  A
N177        C181   1.357       .  A
N177        C178   1.360       .  A
N177        C704   1.436       .  S
C178        C179   1.385       .  A
C178        C713   1.491       .  S
C179        C180   1.376       .  A
C179        H182   1.082       .  S
C180        C181   1.380       .  A
C180        H183   1.082       .  S
C181        C673   1.483       .  S
N184        C188   1.357       .  A
N184        C185   1.358       .  A
N184       C1084   1.435       .  S
C185        C186   1.383       .  A
C185        C724   1.485       .  S
C186        C187   1.376       .  A
C186        H189   1.082       .  S
C187        C188   1.381       .  A
C187        H190   1.082       .  S
C188        C744   1.483       .  S
N191        C195   1.360       .  A
N191        C192   1.356       .  A
N191        C644   1.437       .  S
C192        C193   1.382       .  A
C192        C653   1.480       .  S
C193        C194   1.374       .  A
C193        H196   1.082       .  S
C194        C195   1.382       .  A
C194        H197   1.082       .  S
C195       C1053   1.482       .  S
N198        C202   1.356       .  A
N198        C199   1.358       .  A
N198        C613   1.439       .  S
C199        C200   1.384       .  A
C199        C664   1.483       .  S
C200        C201   1.375       .  A
C200        H203   1.082       .  S
C201        C202   1.380       .  A
C201        H204   1.082       .  S
C202        C604   1.479       .  S
O205        C221   1.276       .  A
O205       Zn211   2.034       .  S
C206        C633   1.476       .  S
C206        O222   1.276       .  A
C206        O219   1.274       .  A
O207        C220   1.276       .  A
O207       Cd214   2.085       .  S
O208        C226   1.273       .  A
O208       Cd217   2.062       .  S
O209        C223   1.277       .  A
O209       Cd213   2.085       .  S
O210        C221   1.274       .  A
O210       Cd213   2.064       .  S
Zn211       O222   2.029       .  S
Zn211       O224   2.023       .  S
Zn211       O216   1.950       .  S
O212        C223   1.272       .  A
O212       Cd217   2.064       .  S
Cd213       O215   2.051       .  S
Cd213       O216   1.997       .  S
Cd214       O218   2.087       .  S
Cd214       O227   2.086       .  S
Cd214       O216   2.009       .  S
O215        C225   1.270       .  A
O216       Cd217   1.996       .  S
Cd217       O219   2.061       .  S
O218        C225   1.278       .  A
C220        C584   1.492       .  S
C220        O224   1.275       .  A
C221       C1464   1.483       .  S
C223        C693   1.490       .  S
C225        C553   1.491       .  S
C226        C824   1.481       .  S
C226        O227   1.277       .  A
N228        C232   1.355       .  A
N228        C229   1.357       .  A
N228        C504   1.438       .  S
C229        C230   1.383       .  A
C229        C533   1.481       .  S
C230        C231   1.376       .  A
C230        H233   1.082       .  S
C231        C232   1.380       .  A
C231        H234   1.082       .  S
C232        C513   1.476       .  S
N235        C239   1.355       .  A
N235        C236   1.358       .  A
N235       C1024   1.436       .  S
C236        C237   1.384       .  A
C236        C544   1.483       .  S
C237        C238   1.374       .  A
C237        H240   1.082       .  S
C238        C239   1.380       .  A
C238        H241   1.082       .  S
C239        C573   1.477       .  S
O242        C258   1.278       .  A
O242       Zn248   2.045       .  S
C243        C793   1.496       .  S
C243        O259   1.278       .  A
C243        O256   1.275       .  A
O244        C257   1.277       .  A
O244       Cd251   2.084       .  S
O245        C263   1.276       .  A
O245       Cd254   2.078       .  S
O246        C260   1.276       .  A
O246       Cd250   2.089       .  S
O247        C258   1.273       .  A
O247       Cd250   2.064       .  S
Zn248       O259   2.030       .  S
Zn248       O261   2.037       .  S
Zn248       O253   1.958       .  S
O249        C260   1.277       .  A
O249       Cd254   2.083       .  S
Cd250       O252   2.076       .  S
Cd250       O253   2.005       .  S
Cd251       O255   2.082       .  S
Cd251       O264   2.085       .  S
Cd251       O253   2.007       .  S
O252        C262   1.276       .  A
O253       Cd254   2.004       .  S
Cd254       O256   2.077       .  S
O255        C262   1.276       .  A
C257        C684   1.494       .  S
C257        O261   1.275       .  A
C258        C624   1.493       .  S
C260        C473   1.483       .  S
C262        C524   1.492       .  S
C263        C924   1.495       .  S
C263        O264   1.276       .  A
N265        C269   1.359       .  A
N265        C266   1.358       .  A
N265        C433   1.443       .  S
C266        C267   1.382       .  A
C266        C464   1.477       .  S
C267        C268   1.370       .  A
C267        H270   1.082       .  S
C268        C269   1.382       .  A
C268        H271   1.082       .  S
C269        C904   1.479       .  S
N272        C276   1.361       .  A
N272        C273   1.361       .  A
N272        C484   1.443       .  S
C273        C274   1.385       .  A
C273        C453   1.485       .  S
C274        C275   1.370       .  A
C274        H277   1.082       .  S
C275        C276   1.380       .  A
C275        H278   1.082       .  S
C276        C764   1.480       .  S
O279        C295   1.277       .  A
O279       Zn285   2.044       .  S
C280        C493   1.494       .  S
C280        O296   1.274       .  A
C280        O293   1.276       .  A
O281        C294   1.278       .  A
O281       Cd288   2.083       .  S
O282        C300   1.275       .  A
O282       Cd291   2.080       .  S
O283        C297   1.278       .  A
O283       Cd287   2.084       .  S
O284        C295   1.275       .  A
O284       Cd287   2.075       .  S
Zn285       O296   2.028       .  S
Zn285       O298   2.031       .  S
Zn285       O290   1.954       .  S
O286        C297   1.273       .  A
O286       Cd291   2.068       .  S
Cd287       O289   2.072       .  S
Cd287       O290   2.003       .  S
Cd288       O292   2.088       .  S
Cd288       O301   2.090       .  S
Cd288       O290   2.005       .  S
O289        C299   1.276       .  A
O290       Cd291   2.003       .  S
Cd291       O293   2.071       .  S
O292        C299   1.276       .  A
C294        C593   1.498       .  S
C294        O298   1.274       .  A
C295        C444   1.487       .  S
C297       C1364   1.492       .  S
C299        C964   1.498       .  S
C300       C1264   1.492       .  S
C300        O301   1.278       .  A
N302        C306   1.360       .  A
N302        C303   1.363       .  A
N302       C1093   1.446       .  S
C303        C304   1.384       .  A
C303        C413   1.481       .  S
C304        C305   1.368       .  A
C304        H307   1.082       .  S
C305        C306   1.378       .  A
C305        H308   1.082       .  S
C306        C564   1.476       .  S
N309        C313   1.359       .  A
N309        C310   1.362       .  A
N309        C393   1.444       .  S
C310        C311   1.384       .  A
C310        C424   1.482       .  S
C311        C312   1.369       .  A
C311        H314   1.082       .  S
C312        C313   1.380       .  A
C312        H315   1.082       .  S
C313       C1044   1.477       .  S
N316        C320   1.355       .  A
N316        C317   1.355       .  A
N316        C884   1.435       .  S
C317        C318   1.382       .  A
C317        C384   1.478       .  S
C318        C319   1.376       .  A
C318        H321   1.082       .  S
C319        C320   1.381       .  A
C319        H322   1.082       .  S
C320        C784   1.474       .  S
N323        C327   1.358       .  A
N323        C324   1.357       .  A
N323        C353   1.438       .  S
C324        C325   1.383       .  A
C324        C373   1.482       .  S
C325        C326   1.373       .  A
C325        H328   1.082       .  S
C326        C327   1.383       .  A
C326        H329   1.082       .  S
C327       C1124   1.482       .  S
O330        C346   1.275       .  A
O330       Zn336   2.021       .  S
C331        C404   1.482       .  S
C331        O347   1.274       .  A
C331        O344   1.275       .  A
O332        C345   1.276       .  A
O332       Cd339   2.090       .  S
O333        C351   1.276       .  A
O333       Cd342   2.066       .  S
O334        C348   1.276       .  A
O334       Cd338   2.072       .  S
O335        C346   1.272       .  A
O335       Cd338   2.063       .  S
Zn336       O347   2.017       .  S
Zn336       O349   2.007       .  S
Zn336       O341   1.944       .  S
O337        C348   1.274       .  A
O337       Cd342   2.072       .  S
Cd338       O340   2.067       .  S
Cd338       O341   2.000       .  S
Cd339       O343   2.096       .  S
Cd339       O352   2.094       .  S
Cd339       O341   2.012       .  S
O340        C350   1.273       .  A
O341       Cd342   2.000       .  S
Cd342       O344   2.082       .  S
O343        C350   1.279       .  A
C345       C1504   1.494       .  S
C345        O349   1.274       .  A
C346       C1293   1.486       .  S
C348        C364   1.491       .  S
C350       C1404   1.489       .  S
C351       C1204   1.491       .  S
C351        O352   1.278       .  A
C353        C354   1.408       .  A
C353        C358   1.402       .  A
C354        C355   1.399       .  A
C354       Br370   1.914       .  S
C355        C356   1.402       .  A
C355        H359   1.083       .  S
C356        C357   1.409       .  A
C356        C360   1.478       .  S
C357        C358   1.399       .  A
C357       Br369   1.919       .  S
C358        H361   1.083       .  S
C360        C362   1.400       .  A
C360        C366   1.405       .  A
C362        C363   1.400       .  A
C362        H367   1.084       .  S
C363        C364   1.419       .  A
C363       Br371   1.922       .  S
C364        C365   1.410       .  A
C365        C366   1.398       .  A
C365        H368   1.083       .  S
C366       Br372   1.920       .  S
C373        C374   1.411       .  A
C373        C378   1.405       .  A
C374        C375   1.395       .  A
C374       Br390   1.921       .  S
C375        C376   1.400       .  A
C375        H379   1.084       .  S
C376        C377   1.409       .  A
C376        C380   1.480       .  S
C377        C378   1.405       .  A
C377       Br389   1.916       .  S
C378        H381   1.083       .  S
C380        C382   1.404       .  A
C380        C386   1.409       .  A
C382        C383   1.404       .  A
C382        H387   1.083       .  S
C383        C384   1.409       .  A
C383       Br391   1.916       .  S
C384        C385   1.401       .  A
C385        C386   1.397       .  A
C385        H388   1.083       .  S
C386       Br392   1.920       .  S
C393        C394   1.411       .  A
C393        C398   1.406       .  A
C394        C395   1.402       .  A
C394       Br410   1.914       .  S
C395        C396   1.403       .  A
C395        H399   1.083       .  S
C396        C397   1.405       .  A
C396        C400   1.478       .  S
C397        C398   1.397       .  A
C397       Br409   1.918       .  S
C398        H401   1.083       .  S
C400        C402   1.402       .  A
C400        C406   1.406       .  A
C402        C403   1.402       .  A
C402        H407   1.084       .  S
C403        C404   1.413       .  A
C403       Br411   1.919       .  S
C404        C405   1.407       .  A
C405        C406   1.399       .  A
C405        H408   1.083       .  S
C406       Br412   1.919       .  S
C413        C414   1.409       .  A
C413        C418   1.404       .  A
C414        C415   1.404       .  A
C414       Br430   1.916       .  S
C415        C416   1.407       .  A
C415        H419   1.083       .  S
C416        C417   1.409       .  A
C416        C420   1.485       .  S
C417        C418   1.394       .  A
C417       Br429   1.922       .  S
C418        H421   1.084       .  S
C420        C422   1.407       .  A
C420        C426   1.409       .  A
C422        C423   1.405       .  A
C422        H427   1.083       .  S
C423        C424   1.410       .  A
C423       Br431   1.916       .  S
C424        C425   1.404       .  A
C425        C426   1.394       .  A
C425        H428   1.084       .  S
C426       Br432   1.922       .  S
C433        C434   1.411       .  A
C433        C438   1.404       .  A
C434        C435   1.399       .  A
C434       Br450   1.917       .  S
C435        C436   1.400       .  A
C435        H439   1.084       .  S
C436        C437   1.409       .  A
C436        C440   1.482       .  S
C437        C438   1.403       .  A
C437       Br449   1.916       .  S
C438        H441   1.083       .  S
C440        C442   1.401       .  A
C440        C446   1.407       .  A
C442        C443   1.403   1_655  A
C442        H447   1.084       .  S
C443        C444   1.416       .  A
C443       Br451   1.922       .  S
C444        C445   1.406       .  A
C445        C446   1.402   1_455  A
C445        H448   1.083       .  S
C446       Br452   1.918       .  S
C453        C454   1.411       .  A
C453        C458   1.404       .  A
C454        C455   1.403       .  A
C454       Br470   1.915       .  S
C455        C456   1.406   1_545  A
C455        H459   1.083   1_545  S
C456        C457   1.411   1_565  A
C456        C460   1.486       .  S
C457        C458   1.394       .  A
C457       Br469   1.923       .  S
C458        H461   1.084       .  S
C460        C462   1.407       .  A
C460        C466   1.411       .  A
C462        C463   1.402       .  A
C462        H467   1.083       .  S
C463        C464   1.408       .  A
C463       Br471   1.915       .  S
C464        C465   1.402       .  A
C465        C466   1.395       .  A
C465        H468   1.084       .  S
C466       Br472   1.922       .  S
C473        C474   1.412       .  A
C473        C478   1.407       .  A
C474        C475   1.399   1_455  A
C474       Br490   1.920       .  S
C475        C476   1.400       .  A
C475        H479   1.084       .  S
C476        C477   1.409       .  A
C476        C480   1.481       .  S
C477        C478   1.406   1_655  A
C477       Br489   1.918       .  S
C478        H481   1.083       .  S
C480        C482   1.400       .  A
C480        C486   1.408       .  A
C482        C483   1.399       .  A
C482        H487   1.083       .  S
C483        C484   1.412       .  A
C483       Br491   1.918       .  S
C484        C485   1.405       .  A
C485        C486   1.403       .  A
C485        H488   1.083       .  S
C486       Br492   1.916       .  S
C493        C494   1.421       .  A
C493        C498   1.411       .  A
C494        C495   1.401       .  A
C494       Br510   1.923       .  S
C495        C496   1.399       .  A
C495        H499   1.084       .  S
C496        C497   1.403       .  A
C496        C500   1.477   1_565  S
C497        C498   1.398       .  A
C497       Br509   1.919       .  S
C498        H501   1.083       .  S
C500        C502   1.402       .  A
C500        C506   1.408       .  A
C502        C503   1.400       .  A
C502        H507   1.083       .  S
C503        C504   1.408       .  A
C503       Br511   1.915       .  S
C504        C505   1.402       .  A
C505        C506   1.398       .  A
C505        H508   1.082       .  S
C506       Br512   1.918   1_545  S
C513        C514   1.407       .  A
C513        C518   1.403       .  A
C514        C515   1.399       .  A
C514       Br530   1.917       .  S
C515        C516   1.402       .  A
C515        H519   1.084       .  S
C516        C517   1.408       .  A
C516        C520   1.478       .  S
C517        C518   1.401       .  A
C517       Br529   1.917       .  S
C518        H521   1.083       .  S
C520        C522   1.400       .  A
C520        C526   1.404       .  A
C522        C523   1.400       .  A
C522        H527   1.084       .  S
C523        C524   1.418       .  A
C523       Br531   1.921       .  S
C524        C525   1.411       .  A
C525        C526   1.401       .  A
C525        H528   1.083       .  S
C526       Br532   1.918       .  S
C533        C534   1.410       .  A
C533        C538   1.403       .  A
C534        C535   1.404       .  A
C534       Br550   1.916       .  S
C535        C536   1.403       .  A
C535        H539   1.083       .  S
C536        C537   1.409       .  A
C536        C540   1.482       .  S
C537        C538   1.399       .  A
C537       Br549   1.920       .  S
C538        H541   1.084       .  S
C540        C542   1.400       .  A
C540        C546   1.408       .  A
C542        C543   1.397       .  A
C542        H547   1.084       .  S
C543        C544   1.412       .  A
C543       Br551   1.921       .  S
C544        C545   1.405       .  A
C545        C546   1.406       .  A
C545        H548   1.080       .  S
C546       Br552   1.916       .  S
C553        C554   1.424       .  A
C553        C558   1.409       .  A
C554        C555   1.399       .  A
C554       Br570   1.924       .  S
C555        C556   1.397       .  A
C555        H559   1.084       .  S
C556        C557   1.405       .  A
C556        C560   1.475       .  S
C557        C558   1.398       .  A
C557       Br569   1.919       .  S
C558        H561   1.083       .  S
C560        C562   1.401       .  A
C560        C566   1.406       .  A
C562        C563   1.399       .  A
C562        H567   1.084       .  S
C563        C564   1.409       .  A
C563       Br571   1.915       .  S
C564        C565   1.403       .  A
C565        C566   1.397       .  A
C565        H568   1.084       .  S
C566       Br572   1.919       .  S
C573        C574   1.408       .  A
C573        C578   1.401       .  A
C574        C575   1.400       .  A
C574       Br590   1.919       .  S
C575        C576   1.403       .  A
C575        H579   1.083       .  S
C576        C577   1.411       .  A
C576        C580   1.484       .  S
C577        C578   1.402       .  A
C577       Br589   1.918       .  S
C578        H581   1.083       .  S
C580        C582   1.403       .  A
C580        C586   1.406       .  A
C582        C583   1.401       .  A
C582        H587   1.084       .  S
C583        C584   1.417       .  A
C583       Br591   1.922       .  S
C584        C585   1.410       .  A
C585        C586   1.402       .  A
C585        H588   1.083       .  S
C586       Br592   1.919       .  S
C593        C594   1.423       .  A
C593        C598   1.410       .  A
C594        C595   1.405       .  A
C594       Br610   1.923       .  S
C595        C596   1.400       .  A
C595        H599   1.084       .  S
C596        C597   1.405       .  A
C596        C600   1.483       .  S
C597        C598   1.399       .  A
C597       Br609   1.919       .  S
C598        H601   1.083       .  S
C600        C602   1.403       .  A
C600        C606   1.409       .  A
C602        C603   1.401       .  A
C602        H607   1.083       .  S
C603        C604   1.408       .  A
C603       Br611   1.918       .  S
C604        C605   1.403       .  A
C605        C606   1.402       .  A
C605        H608   1.084       .  S
C606       Br612   1.917       .  S
C613        C614   1.408       .  A
C613        C618   1.401       .  A
C614        C615   1.404       .  A
C614       Br630   1.914       .  S
C615        C616   1.406       .  A
C615        H619   1.083       .  S
C616        C617   1.409       .  A
C616        C620   1.483       .  S
C617        C618   1.396       .  A
C617       Br629   1.919       .  S
C618        H621   1.083       .  S
C620        C622   1.400       .  A
C620        C626   1.407   1_565  A
C622        C623   1.399   1_565  A
C622        H627   1.084       .  S
C623        C624   1.420       .  A
C623       Br631   1.924       .  S
C624        C625   1.410       .  A
C625        C626   1.403       .  A
C625        H628   1.083       .  S
C626       Br632   1.918       .  S
C633        C634   1.411       .  A
C633        C638   1.406       .  A
C634        C635   1.397       .  A
C634       Br650   1.921       .  S
C635        C636   1.401   1_545  A
C635        H639   1.084   1_545  S
C636        C637   1.406   1_565  A
C636        C640   1.475       .  S
C637        C638   1.400       .  A
C637       Br649   1.917   1_545  S
C638        H641   1.084       .  S
C640        C642   1.403       .  A
C640        C646   1.407       .  A
C642        C643   1.401       .  A
C642        H647   1.083       .  S
C643        C644   1.407       .  A
C643       Br651   1.914       .  S
C644        C645   1.402       .  A
C645        C646   1.396       .  A
C645        H648   1.083       .  S
C646       Br652   1.919       .  S
C653        C654   1.408       .  A
C653        C658   1.403       .  A
C654        C655   1.399       .  A
C654       Br670   1.918       .  S
C655        C656   1.403   1_556  A
C655        H659   1.084       .  S
C656        C657   1.411   1_554  A
C656        C660   1.484       .  S
C657        C658   1.403       .  A
C657       Br669   1.918   1_556  S
C658        H661   1.084       .  S
C660        C662   1.401       .  A
C660        C666   1.410       .  A
C662        C663   1.395       .  A
C662        H667   1.084       .  S
C663        C664   1.411       .  A
C663       Br671   1.921       .  S
C664        C665   1.406       .  A
C665        C666   1.407       .  A
C665        H668   1.083       .  S
C666       Br672   1.916       .  S
C673        C674   1.409       .  A
C673        C678   1.403       .  A
C674        C675   1.402       .  A
C674       Br690   1.918       .  S
C675        C676   1.403       .  A
C675        H679   1.083       .  S
C676        C677   1.409       .  A
C676        C680   1.485       .  S
C677        C678   1.403       .  A
C677       Br689   1.917       .  S
C678        H681   1.083       .  S
C680        C682   1.402       .  A
C680        C686   1.407       .  A
C682        C683   1.406       .  A
C682        H687   1.083       .  S
C683        C684   1.419       .  A
C683       Br691   1.922       .  S
C684        C685   1.408       .  A
C685        C686   1.400       .  A
C685        H688   1.083       .  S
C686       Br692   1.919       .  S
C693        C694   1.419       .  A
C693        C698   1.409       .  A
C694        C695   1.400   1_556  A
C694       Br710   1.922       .  S
C695        C696   1.400       .  A
C695        H699   1.084       .  S
C696        C697   1.407   1_554  A
C696        C700   1.480       .  S
C697        C698   1.400       .  A
C697       Br709   1.920       .  S
C698        H701   1.083       .  S
C700        C702   1.404       .  A
C700        C706   1.409       .  A
C702        C703   1.401       .  A
C702        H707   1.083       .  S
C703        C704   1.406       .  A
C703       Br711   1.915       .  S
C704        C705   1.402       .  A
C705        C706   1.397       .  A
C705        H708   1.083       .  S
C706       Br712   1.919       .  S
C713        C714   1.411       .  A
C713        C718   1.407       .  A
C714        C715   1.397       .  A
C714       Br730   1.921       .  S
C715        C716   1.403       .  A
C715        H719   1.084       .  S
C716        C717   1.413       .  A
C716        C720   1.494       .  S
C717        C718   1.409       .  A
C717       Br729   1.917       .  S
C718        H721   1.083       .  S
C720        C722   1.405       .  A
C720        C726   1.415       .  A
C722        C723   1.401       .  A
C722        H727   1.084       .  S
C723        C724   1.410       .  A
C723       Br731   1.919       .  S
C724        C725   1.403       .  A
C725        C726   1.406       .  A
C725        H728   1.083       .  S
C726       Br732   1.919       .  S
C733        C734   1.419       .  A
C733        C738   1.412       .  A
C734        C735   1.402       .  A
C734       Br750   1.922       .  S
C735        C736   1.402       .  A
C735        H739   1.084       .  S
C736        C737   1.405       .  A
C736        C740   1.486       .  S
C737        C738   1.403       .  A
C737       Br749   1.918       .  S
C738        H741   1.083       .  S
C740        C742   1.403       .  A
C740        C746   1.409       .  A
C742        C743   1.402       .  A
C742        H747   1.083       .  S
C743        C744   1.409       .  A
C743       Br751   1.918       .  S
C744        C745   1.403       .  A
C745        C746   1.403       .  A
C745        H748   1.082       .  S
C746       Br752   1.917       .  S
C753        C754   1.420       .  A
C753        C758   1.408       .  A
C754        C755   1.399       .  A
C754       Br770   1.923       .  S
C755        C756   1.399       .  A
C755        H759   1.084       .  S
C756        C757   1.408       .  A
C756        C760   1.481       .  S
C757        C758   1.400       .  A
C757       Br769   1.919       .  S
C758        H761   1.083       .  S
C760        C762   1.404       .  A
C760        C766   1.407       .  A
C762        C763   1.403       .  A
C762        H767   1.083       .  S
C763        C764   1.411       .  A
C763       Br771   1.917       .  S
C764        C765   1.403       .  A
C765        C766   1.395       .  A
C765        H768   1.084       .  S
C766       Br772   1.920       .  S
C773        C774   1.423       .  A
C773        C778   1.409       .  A
C774        C775   1.401       .  A
C774       Br790   1.923       .  S
C775        C776   1.398       .  A
C775        H779   1.084       .  S
C776        C777   1.406       .  A
C776        C780   1.480       .  S
C777        C778   1.400       .  A
C777       Br789   1.918       .  S
C778        H781   1.083       .  S
C780        C782   1.403       .  A
C780        C786   1.408       .  A
C782        C783   1.399       .  A
C782        H787   1.083       .  S
C783        C784   1.407       .  A
C783       Br791   1.918       .  S
C784        C785   1.402       .  A
C785        C786   1.401       .  A
C785        H788   1.083       .  S
C786       Br792   1.918       .  S
C793        C794   1.421       .  A
C793        C798   1.411       .  A
C794        C795   1.402       .  A
C794       Br810   1.922       .  S
C795        C796   1.400       .  A
C795        H799   1.084       .  S
C796        C797   1.403       .  A
C796        C800   1.478       .  S
C797        C798   1.399       .  A
C797       Br809   1.919       .  S
C798        H801   1.083       .  S
C800        C802   1.403   1_554  A
C800        C806   1.407   1_554  A
C802        C803   1.400       .  A
C802        H807   1.083   1_556  S
C803        C804   1.406       .  A
C803       Br811   1.914       .  S
C804        C805   1.402       .  A
C805        C806   1.400       .  A
C805        H808   1.083       .  S
C806       Br812   1.917       .  S
C813        C814   1.411       .  A
C813        C818   1.404       .  A
C814        C815   1.397       .  A
C814       Br830   1.920       .  S
C815        C816   1.400       .  A
C815        H819   1.084       .  S
C816        C817   1.408       .  A
C816        C820   1.477       .  S
C817        C818   1.402       .  A
C817       Br829   1.917       .  S
C818        H821   1.083       .  S
C820        C822   1.400       .  A
C820        C826   1.407       .  A
C822        C823   1.401       .  A
C822        H827   1.083       .  S
C823        C824   1.416       .  A
C823       Br831   1.921       .  S
C824        C825   1.404       .  A
C825        C826   1.398       .  A
C825        H828   1.084       .  S
C826       Br832   1.919       .  S
C833        C834   1.406       .  A
C833        C838   1.398       .  A
C834        C835   1.402       .  A
C834       Br850   1.914       .  S
C835        C836   1.403   1_556  A
C835        H839   1.083       .  S
C836        C837   1.407   1_554  A
C836        C840   1.474       .  S
C837        C838   1.395       .  A
C837       Br849   1.919   1_556  S
C838        H841   1.081       .  S
C840        C842   1.399       .  A
C840        C846   1.403       .  A
C842        C843   1.399       .  A
C842        H847   1.084       .  S
C843        C844   1.418       .  A
C843       Br851   1.922       .  S
C844        C845   1.410       .  A
C845        C846   1.398       .  A
C845        H848   1.083       .  S
C846       Br852   1.919       .  S
C853        C854   1.409       .  A
C853        C858   1.402       .  A
C854        C855   1.402       .  A
C854       Br870   1.915       .  S
C855        C856   1.403       .  A
C855        H859   1.084       .  S
C856        C857   1.412       .  A
C856        C860   1.483       .  S
C857        C858   1.400       .  A
C857       Br869   1.921       .  S
C858        H861   1.084       .  S
C860        C862   1.404       .  A
C860        C866   1.410   1_655  A
C862        C863   1.397   1_655  A
C862        H867   1.083       .  S
C863        C864   1.406       .  A
C863       Br871   1.918       .  S
C864        C865   1.404       .  A
C865        C866   1.403       .  A
C865        H868   1.082       .  S
C866       Br872   1.917       .  S
C873        C874   1.421       .  A
C873        C878   1.411       .  A
C874        C875   1.400       .  A
C874       Br890   1.922       .  S
C875        C876   1.399       .  A
C875        H879   1.084       .  S
C876        C877   1.404       .  A
C876        C880   1.478       .  S
C877        C878   1.399       .  A
C877       Br889   1.919       .  S
C878        H881   1.083       .  S
C880        C882   1.402       .  A
C880        C886   1.409       .  A
C882        C883   1.399       .  A
C882        H887   1.083       .  S
C883        C884   1.405       .  A
C883       Br891   1.914       .  S
C884        C885   1.401       .  A
C885        C886   1.400       .  A
C885        H888   1.083       .  S
C886       Br892   1.919       .  S
C893        C894   1.414       .  A
C893        C898   1.407       .  A
C894        C895   1.401       .  A
C894       Br910   1.920       .  S
C895        C896   1.403       .  A
C895        H899   1.084       .  S
C896        C897   1.404       .  A
C896        C900   1.476       .  S
C897        C898   1.396       .  A
C897       Br909   1.919       .  S
C898        H901   1.083       .  S
C900        C902   1.401       .  A
C900        C906   1.407       .  A
C902        C903   1.396       .  A
C902        H907   1.084       .  S
C903        C904   1.411       .  A
C903       Br911   1.921       .  S
C904        C905   1.404       .  A
C905        C906   1.400       .  A
C905        H908   1.083       .  S
C906       Br912   1.917       .  S
C913        C914   1.415       .  A
C913        C918   1.406       .  A
C914        C915   1.399       .  A
C914       Br930   1.921       .  S
C915        C916   1.400       .  A
C915        H919   1.084       .  S
C916        C917   1.408       .  A
C916        C920   1.482       .  S
C917        C918   1.403       .  A
C917       Br929   1.916       .  S
C918        H921   1.082       .  S
C920        C922   1.401       .  A
C920        C926   1.405       .  A
C922        C923   1.401       .  A
C922        H927   1.084       .  S
C923        C924   1.419       .  A
C923       Br931   1.921       .  S
C924        C925   1.412       .  A
C925        C926   1.402       .  A
C925        H928   1.083       .  S
C926       Br932   1.918       .  S
C933        C934   1.408       .  A
C933        C938   1.402       .  A
C934        C935   1.400       .  A
C934       Br950   1.916       .  S
C935        C936   1.403   1_455  A
C935        H939   1.083   1_455  S
C936        C937   1.410       .  A
C936        C940   1.482       .  S
C937        C938   1.401   1_655  A
C937       Br949   1.918       .  S
C938        H941   1.083       .  S
C940        C942   1.399       .  A
C940        C946   1.406       .  A
C942        C943   1.401       .  A
C942        H947   1.084       .  S
C943        C944   1.422       .  A
C943       Br951   1.924       .  S
C944        C945   1.409       .  A
C945        C946   1.401       .  A
C945        H948   1.083       .  S
C946       Br952   1.918       .  S
C953        C954   1.409       .  A
C953        C958   1.403       .  A
C954        C955   1.400       .  A
C954       Br970   1.918       .  S
C955        C956   1.402       .  A
C955        H959   1.083       .  S
C956        C957   1.409       .  A
C956        C960   1.481       .  S
C957        C958   1.403       .  A
C957       Br969   1.917       .  S
C958        H961   1.083       .  S
C960        C962   1.401       .  A
C960        C966   1.402       .  A
C962        C963   1.403       .  A
C962        H967   1.084       .  S
C963        C964   1.421       .  A
C963       Br971   1.923       .  S
C964        C965   1.413       .  A
C965        C966   1.400       .  A
C965        H968   1.083       .  S
C966       Br972   1.918       .  S
C973        C974   1.407       .  A
C973        C978   1.402       .  A
C974        C975   1.404   1_455  A
C974       Br990   1.915       .  S
C975        C976   1.405       .  A
C975        H979   1.083       .  S
C976        C977   1.409       .  A
C976        C980   1.485       .  S
C977        C978   1.401   1_655  A
C977       Br989   1.917       .  S
C978        H981   1.083       .  S
C980        C982   1.402       .  A
C980        C986   1.406       .  A
C982        C983   1.406       .  A
C982        H987   1.083       .  S
C983        C984   1.418       .  A
C983       Br991   1.920       .  S
C984        C985   1.410       .  A
C985        C986   1.401       .  A
C985        H988   1.083       .  S
C986       Br992   1.920       .  S
C993        C994   1.411       .  A
C993        C998   1.403       .  A
C994        C995   1.397       .  A
C994      Br1010   1.922       .  S
C995        C996   1.405       .  A
C995        H999   1.083       .  S
C996        C997   1.416       .  A
C996       C1000   1.495       .  S
C997        C998   1.405       .  A
C997      Br1009   1.919       .  S
C998       H1001   1.083       .  S
C1000      C1002   1.404       .  A
C1000      C1006   1.415       .  A
C1002      C1003   1.397       .  A
C1002      H1007   1.083       .  S
C1003      C1004   1.411       .  A
C1003     Br1011   1.921       .  S
C1004      C1005   1.404       .  A
C1005      C1006   1.406       .  A
C1005      H1008   1.083       .  S
C1006     Br1012   1.919       .  S
C1013      C1014   1.421       .  A
C1013      C1018   1.412       .  A
C1014      C1015   1.402       .  A
C1014     Br1030   1.922       .  S
C1015      C1016   1.401       .  A
C1015      H1019   1.084       .  S
C1016      C1017   1.406       .  A
C1016      C1020   1.482   1_565  S
C1017      C1018   1.400       .  A
C1017     Br1029   1.920       .  S
C1018      H1021   1.083       .  S
C1020      C1022   1.403       .  A
C1020      C1026   1.411       .  A
C1022      C1023   1.398       .  A
C1022      H1027   1.083   1_545  S
C1023      C1024   1.406       .  A
C1023     Br1031   1.916       .  S
C1024      C1025   1.401       .  A
C1025      C1026   1.403       .  A
C1025      H1028   1.083       .  S
C1026     Br1032   1.918       .  S
C1033      C1034   1.420       .  A
C1033      C1038   1.413       .  A
C1034      C1035   1.400       .  A
C1034     Br1050   1.923       .  S
C1035      C1036   1.400       .  A
C1035      H1039   1.084       .  S
C1036      C1037   1.402       .  A
C1036      C1040   1.476       .  S
C1037      C1038   1.399       .  A
C1037     Br1049   1.919       .  S
C1038      H1041   1.083       .  S
C1040      C1042   1.400       .  A
C1040      C1046   1.408       .  A
C1042      C1043   1.396       .  A
C1042      H1047   1.084       .  S
C1043      C1044   1.409       .  A
C1043     Br1051   1.919       .  S
C1044      C1045   1.403       .  A
C1045      C1046   1.401       .  A
C1045      H1048   1.083       .  S
C1046     Br1052   1.917       .  S
C1053      C1054   1.410       .  A
C1053      C1058   1.404       .  A
C1054      C1055   1.405       .  A
C1054     Br1070   1.916       .  S
C1055      C1056   1.404       .  A
C1055      H1059   1.083       .  S
C1056      C1057   1.406       .  A
C1056      C1060   1.482       .  S
C1057      C1058   1.398       .  A
C1057     Br1069   1.918       .  S
C1058      H1061   1.084       .  S
C1060      C1062   1.399       .  A
C1060      C1066   1.408       .  A
C1062      C1063   1.401       .  A
C1062      H1067   1.084       .  S
C1063      C1064   1.420       .  A
C1063     Br1071   1.922       .  S
C1064      C1065   1.407       .  A
C1065      C1066   1.402       .  A
C1065      H1068   1.083       .  S
C1066     Br1072   1.918       .  S
C1073      C1074   1.416       .  A
C1073      C1078   1.408       .  A
C1074      C1075   1.403       .  A
C1074     Br1090   1.920       .  S
C1075      C1076   1.402   1_556  A
C1075      H1079   1.083       .  S
C1076      C1077   1.407   1_554  A
C1076      C1080   1.482       .  S
C1077      C1078   1.399       .  A
C1077     Br1089   1.920   1_556  S
C1078      H1081   1.083       .  S
C1080      C1082   1.404       .  A
C1080      C1086   1.410       .  A
C1082      C1083   1.400       .  A
C1082      H1087   1.083       .  S
C1083      C1084   1.405       .  A
C1083     Br1091   1.915       .  S
C1084      C1085   1.401       .  A
C1085      C1086   1.401       .  A
C1085      H1088   1.083       .  S
C1086     Br1092   1.917       .  S
C1093      C1094   1.413       .  A
C1093      C1098   1.405       .  A
C1094      C1095   1.406       .  A
C1094     Br1110   1.916       .  S
C1095      C1096   1.405       .  A
C1095      H1099   1.083       .  S
C1096      C1097   1.407       .  A
C1096      C1100   1.486       .  S
C1097      C1098   1.397       .  A
C1097     Br1109   1.919       .  S
C1098      H1101   1.083       .  S
C1100      C1102   1.401       .  A
C1100      C1106   1.408       .  A
C1102      C1103   1.405       .  A
C1102      H1107   1.084       .  S
C1103      C1104   1.418       .  A
C1103     Br1111   1.918       .  S
C1104      C1105   1.409       .  A
C1105      C1106   1.401       .  A
C1105      H1108   1.083       .  S
C1106     Br1112   1.920       .  S
C1113      C1114   1.420       .  A
C1113      C1118   1.407       .  A
C1114      C1115   1.403       .  A
C1114     Br1130   1.922       .  S
C1115      C1116   1.401       .  A
C1115      H1119   1.084       .  S
C1116      C1117   1.408       .  A
C1116      C1120   1.484       .  S
C1117      C1118   1.399       .  A
C1117     Br1129   1.920       .  S
C1118      H1121   1.083       .  S
C1120      C1122   1.402       .  A
C1120      C1126   1.410       .  A
C1122      C1123   1.399       .  A
C1122      H1127   1.084       .  S
C1123      C1124   1.411       .  A
C1123     Br1131   1.920       .  S
C1124      C1125   1.403       .  A
C1125      C1126   1.402       .  A
C1125      H1128   1.083       .  S
C1126     Br1132   1.918       .  S
C1133      C1134   1.421       .  A
C1133      C1138   1.409       .  A
C1134      C1135   1.404       .  A
C1134     Br1150   1.922       .  S
C1135      C1136   1.401       .  A
C1135      H1139   1.084       .  S
C1136      C1137   1.408       .  A
C1136      C1140   1.488       .  S
C1137      C1138   1.401       .  A
C1137     Br1149   1.919       .  S
C1138      H1141   1.083       .  S
C1140      C1142   1.405       .  A
C1140      C1146   1.411       .  A
C1142      C1143   1.402       .  A
C1142      H1147   1.083       .  S
C1143      C1144   1.407       .  A
C1143     Br1151   1.917       .  S
C1144      C1145   1.402       .  A
C1145      C1146   1.402       .  A
C1145      H1148   1.083       .  S
C1146     Br1152   1.918       .  S
C1153      C1154   1.408       .  A
C1153      C1158   1.403       .  A
C1154      C1155   1.398       .  A
C1154     Br1170   1.912       .  S
C1155      C1156   1.401       .  A
C1155      H1159   1.084       .  S
C1156      C1157   1.410       .  A
C1156      C1160   1.483       .  S
C1157      C1158   1.404       .  A
C1157     Br1169   1.917       .  S
C1158      H1161   1.083       .  S
C1160      C1162   1.400       .  A
C1160      C1166   1.405       .  A
C1162      C1163   1.401       .  A
C1162      H1167   1.084       .  S
C1163      C1164   1.422       .  A
C1163     Br1171   1.923       .  S
C1164      C1165   1.412       .  A
C1165      C1166   1.402       .  A
C1165      H1168   1.083       .  S
C1166     Br1172   1.919       .  S
C1173      C1174   1.418       .  A
C1173      C1178   1.407       .  A
C1174      C1175   1.400       .  A
C1174     Br1190   1.922       .  S
C1175      C1176   1.400       .  A
C1175      H1179   1.084       .  S
C1176      C1177   1.410       .  A
C1176      C1180   1.483       .  S
C1177      C1178   1.400       .  A
C1177     Br1189   1.920       .  S
C1178      H1181   1.083       .  S
C1180      C1182   1.402       .  A
C1180      C1186   1.412       .  A
C1182      C1183   1.397       .  A
C1182      H1187   1.084       .  S
C1183      C1184   1.410       .  A
C1183     Br1191   1.920       .  S
C1184      C1185   1.402       .  A
C1185      C1186   1.402       .  A
C1185      H1188   1.083       .  S
C1186     Br1192   1.918       .  S
C1193      C1194   1.407       .  A
C1193      C1198   1.402       .  A
C1194      C1195   1.398       .  A
C1194     Br1210   1.918       .  S
C1195      C1196   1.403       .  A
C1195      H1199   1.083       .  S
C1196      C1197   1.411       .  A
C1196      C1200   1.484       .  S
C1197      C1198   1.401       .  A
C1197     Br1209   1.918       .  S
C1198      H1201   1.083       .  S
C1200      C1202   1.403       .  A
C1200      C1206   1.406       .  A
C1202      C1203   1.402       .  A
C1202      H1207   1.084       .  S
C1203      C1204   1.416       .  A
C1203     Br1211   1.921       .  S
C1204      C1205   1.410       .  A
C1205      C1206   1.399       .  A
C1205      H1208   1.083       .  S
C1206     Br1212   1.920       .  S
C1213      C1214   1.407       .  A
C1213      C1218   1.401       .  A
C1214      C1215   1.398       .  A
C1214     Br1230   1.914       .  S
C1215      C1216   1.402       .  A
C1215      H1219   1.083       .  S
C1216      C1217   1.409       .  A
C1216      C1220   1.477       .  S
C1217      C1218   1.398       .  A
C1217     Br1229   1.919       .  S
C1218      H1221   1.082       .  S
C1220      C1222   1.399       .  A
C1220      C1226   1.406       .  A
C1222      C1223   1.399       .  A
C1222      H1227   1.084       .  S
C1223      C1224   1.417       .  A
C1223     Br1231   1.919       .  S
C1224      C1225   1.409       .  A
C1225      C1226   1.399       .  A
C1225      H1228   1.083       .  S
C1226     Br1232   1.919       .  S
C1233      C1234   1.407       .  A
C1233      C1238   1.401       .  A
C1234      C1235   1.401       .  A
C1234     Br1250   1.917       .  S
C1235      C1236   1.405   1_556  A
C1235      H1239   1.083       .  S
C1236      C1237   1.411   1_554  A
C1236      C1240   1.480       .  S
C1237      C1238   1.396       .  A
C1237     Br1249   1.921   1_556  S
C1238      H1241   1.084       .  S
C1240      C1242   1.401       .  A
C1240      C1246   1.410       .  A
C1242      C1243   1.393       .  A
C1242      H1247   1.084       .  S
C1243      C1244   1.409       .  A
C1243     Br1251   1.920       .  S
C1244      C1245   1.405       .  A
C1245      C1246   1.404       .  A
C1245      H1248   1.083       .  S
C1246     Br1252   1.918       .  S
C1253      C1254   1.412       .  A
C1253      C1258   1.404       .  A
C1254      C1255   1.400       .  A
C1254     Br1270   1.920       .  S
C1255      C1256   1.401       .  A
C1255      H1259   1.084       .  S
C1256      C1257   1.409       .  A
C1256      C1260   1.484       .  S
C1257      C1258   1.404       .  A
C1257     Br1269   1.916       .  S
C1258      H1261   1.083       .  S
C1260      C1262   1.401       .  A
C1260      C1266   1.407       .  A
C1262      C1263   1.404       .  A
C1262      H1267   1.083       .  S
C1263      C1264   1.418       .  A
C1263     Br1271   1.921       .  S
C1264      C1265   1.407       .  A
C1265      C1266   1.401       .  A
C1265      H1268   1.083       .  S
C1266     Br1272   1.919       .  S
C1273      C1274   1.406       .  A
C1273      C1278   1.401       .  A
C1274      C1275   1.400       .  A
C1274     Br1290   1.915       .  S
C1275      C1276   1.404       .  A
C1275      H1279   1.083       .  S
C1276      C1277   1.409       .  A
C1276      C1280   1.483       .  S
C1277      C1278   1.401       .  A
C1277     Br1289   1.917       .  S
C1278      H1281   1.082       .  S
C1280      C1282   1.402       .  A
C1280      C1286   1.407       .  A
C1282      C1283   1.402       .  A
C1282      H1287   1.084       .  S
C1283      C1284   1.417       .  A
C1283     Br1291   1.921       .  S
C1284      C1285   1.408       .  A
C1285      C1286   1.399       .  A
C1285      H1288   1.083       .  S
C1286     Br1292   1.919       .  S
C1293      C1294   1.417       .  A
C1293      C1298   1.408       .  A
C1294      C1295   1.399       .  A
C1294     Br1310   1.922       .  S
C1295      C1296   1.400       .  A
C1295      H1299   1.084       .  S
C1296      C1297   1.406       .  A
C1296      C1300   1.477       .  S
C1297      C1298   1.398       .  A
C1297     Br1309   1.919       .  S
C1298      H1301   1.083       .  S
C1300      C1302   1.402       .  A
C1300      C1306   1.408       .  A
C1302      C1303   1.400       .  A
C1302      H1307   1.083       .  S
C1303      C1304   1.408       .  A
C1303     Br1311   1.914       .  S
C1304      C1305   1.403       .  A
C1305      C1306   1.397       .  A
C1305      H1308   1.083       .  S
C1306     Br1312   1.920       .  S
C1313      C1314   1.410       .  A
C1313      C1318   1.404       .  A
C1314      C1315   1.400       .  A
C1314     Br1330   1.918       .  S
C1315      C1316   1.402       .  A
C1315      H1319   1.083       .  S
C1316      C1317   1.410       .  A
C1316      C1320   1.484       .  S
C1317      C1318   1.404       .  A
C1317     Br1329   1.917       .  S
C1318      H1321   1.083       .  S
C1320      C1322   1.402       .  A
C1320      C1326   1.409       .  A
C1322      C1323   1.404       .  A
C1322      H1327   1.083       .  S
C1323      C1324   1.416       .  A
C1323     Br1331   1.921       .  S
C1324      C1325   1.405       .  A
C1325      C1326   1.402       .  A
C1325      H1328   1.083       .  S
C1326     Br1332   1.919       .  S
C1333      C1334   1.409       .  A
C1333      C1338   1.403       .  A
C1334      C1335   1.401       .  A
C1334     Br1350   1.919       .  S
C1335      C1336   1.404       .  A
C1335      H1339   1.083       .  S
C1336      C1337   1.413       .  A
C1336      C1340   1.489       .  S
C1337      C1338   1.405       .  A
C1337     Br1349   1.919       .  S
C1338      H1341   1.083       .  S
C1340      C1342   1.402       .  A
C1340      C1346   1.412       .  A
C1342      C1343   1.396       .  A
C1342      H1347   1.084       .  S
C1343      C1344   1.412       .  A
C1343     Br1351   1.922       .  S
C1344      C1345   1.406       .  A
C1345      C1346   1.408       .  A
C1345      H1348   1.083       .  S
C1346     Br1352   1.917       .  S
C1353      C1354   1.406       .  A
C1353      C1358   1.400       .  A
C1354      C1355   1.401       .  A
C1354     Br1370   1.915       .  S
C1355      C1356   1.405       .  A
C1355      H1359   1.083       .  S
C1356      C1357   1.410       .  A
C1356      C1360   1.481       .  S
C1357      C1358   1.397       .  A
C1357     Br1369   1.920       .  S
C1358      H1361   1.083       .  S
C1360      C1362   1.401       .  A
C1360      C1366   1.407       .  A
C1362      C1363   1.401       .  A
C1362      H1367   1.084       .  S
C1363      C1364   1.420       .  A
C1363     Br1371   1.923       .  S
C1364      C1365   1.408       .  A
C1365      C1366   1.399       .  A
C1365      H1368   1.083       .  S
C1366     Br1372   1.920       .  S
C1373      C1374   1.411       .  A
C1373      C1378   1.404       .  A
C1374      C1375   1.400       .  A
C1374     Br1390   1.919       .  S
C1375      C1376   1.402       .  A
C1375      H1379   1.083       .  S
C1376      C1377   1.408       .  A
C1376      C1380   1.481       .  S
C1377      C1378   1.402       .  A
C1377     Br1389   1.917       .  S
C1378      H1381   1.083       .  S
C1380      C1382   1.401       .  A
C1380      C1386   1.406       .  A
C1382      C1383   1.404       .  A
C1382      H1387   1.083       .  S
C1383      C1384   1.419       .  A
C1383     Br1391   1.922       .  S
C1384      C1385   1.406       .  A
C1385      C1386   1.399       .  A
C1385      H1388   1.083       .  S
C1386     Br1392   1.918       .  S
C1393      C1394   1.412       .  A
C1393      C1398   1.405       .  A
C1394      C1395   1.399       .  A
C1394     Br1410   1.920       .  S
C1395      C1396   1.400       .  A
C1395      H1399   1.084       .  S
C1396      C1397   1.409       .  A
C1396      C1400   1.482       .  S
C1397      C1398   1.404       .  A
C1397     Br1409   1.917       .  S
C1398      H1401   1.083       .  S
C1400      C1402   1.400       .  A
C1400      C1406   1.408       .  A
C1402      C1403   1.403       .  A
C1402      H1407   1.083       .  S
C1403      C1404   1.419       .  A
C1403     Br1411   1.922       .  S
C1404      C1405   1.406       .  A
C1405      C1406   1.401       .  A
C1405      H1408   1.083       .  S
C1406     Br1412   1.918       .  S
C1413      C1414   1.405       .  A
C1413      C1418   1.402       .  A
C1414      C1415   1.395       .  A
C1414     Br1430   1.914       .  S
C1415      C1416   1.401       .  A
C1415      H1419   1.084       .  S
C1416      C1417   1.408       .  A
C1416      C1420   1.475       .  S
C1417      C1418   1.402       .  A
C1417     Br1429   1.916       .  S
C1418      H1421   1.082       .  S
C1420      C1422   1.400       .  A
C1420      C1426   1.404       .  A
C1422      C1423   1.401       .  A
C1422      H1427   1.084       .  S
C1423      C1424   1.418       .  A
C1423     Br1431   1.921       .  S
C1424      C1425   1.410       .  A
C1425      C1426   1.398       .  A
C1425      H1428   1.083       .  S
C1426     Br1432   1.920       .  S
C1433      C1434   1.409       .  A
C1433      C1438   1.402       .  A
C1434      C1435   1.402       .  A
C1434     Br1450   1.918       .  S
C1435      C1436   1.403       .  A
C1435      H1439   1.083       .  S
C1436      C1437   1.411       .  A
C1436      C1440   1.484       .  S
C1437      C1438   1.403       .  A
C1437     Br1449   1.918       .  S
C1438      H1441   1.083       .  S
C1440      C1442   1.401       .  A
C1440      C1446   1.409       .  A
C1442      C1443   1.396   1_655  A
C1442      H1447   1.084       .  S
C1443      C1444   1.411       .  A
C1443     Br1451   1.921       .  S
C1444      C1445   1.407       .  A
C1445      C1446   1.408   1_455  A
C1445      H1448   1.083       .  S
C1446     Br1452   1.916       .  S
C1453      C1454   1.411       .  A
C1453      C1458   1.405       .  A
C1454      C1455   1.396       .  A
C1454     Br1470   1.915       .  S
C1455      C1456   1.400       .  A
C1455      H1459   1.084       .  S
C1456      C1457   1.408       .  A
C1456      C1460   1.477       .  S
C1457      C1458   1.401       .  A
C1457     Br1469   1.917       .  S
C1458      H1461   1.083       .  S
C1460      C1462   1.400       .  A
C1460      C1466   1.406       .  A
C1462      C1463   1.399       .  A
C1462      H1467   1.084       .  S
C1463      C1464   1.416       .  A
C1463     Br1471   1.923       .  S
C1464      C1465   1.406       .  A
C1465      C1466   1.401       .  A
C1465      H1468   1.083       .  S
C1466     Br1472   1.918       .  S
C1473      C1474   1.414       .  A
C1473      C1478   1.409       .  A
C1474      C1475   1.401       .  A
C1474     Br1490   1.920       .  S
C1475      C1476   1.403       .  A
C1475      H1479   1.084       .  S
C1476      C1477   1.403       .  A
C1476      C1480   1.476       .  S
C1477      C1478   1.396       .  A
C1477     Br1489   1.918       .  S
C1478      H1481   1.083       .  S
C1480      C1482   1.399       .  A
C1480      C1486   1.408       .  A
C1482      C1483   1.395       .  A
C1482      H1487   1.084       .  S
C1483      C1484   1.412       .  A
C1483     Br1491   1.921       .  S
C1484      C1485   1.404       .  A
C1485      C1486   1.402       .  A
C1485      H1488   1.083       .  S
C1486     Br1492   1.917       .  S
C1493      C1494   1.412       .  A
C1493      C1498   1.406       .  A
C1494      C1495   1.398       .  A
C1494     Br1510   1.920       .  S
C1495      C1496   1.400       .  A
C1495      H1499   1.084       .  S
C1496      C1497   1.406       .  A
C1496      C1500   1.478       .  S
C1497      C1498   1.401       .  A
C1497     Br1509   1.917       .  S
C1498      H1501   1.082       .  S
C1500      C1502   1.401       .  A
C1500      C1506   1.402       .  A
C1502      C1503   1.402       .  A
C1502      H1507   1.084       .  S
C1503      C1504   1.419       .  A
C1503     Br1511   1.921       .  S
C1504      C1505   1.412       .  A
C1505      C1506   1.399       .  A
C1505      H1508   1.083       .  S
C1506     Br1512   1.918       .  S
C1513      C1514   1.407       .  A
C1513      C1518   1.401       .  A
C1514      C1515   1.403       .  A
C1514     Br1530   1.915       .  S
C1515      C1516   1.404       .  A
C1515      H1519   1.082       .  S
C1516      C1517   1.406       .  A
C1516      C1520   1.475       .  S
C1517      C1518   1.394       .  A
C1517     Br1529   1.919       .  S
C1518      H1521   1.082       .  S
C1520      C1522   1.401       .  A
C1520      C1526   1.404       .  A
C1522      C1523   1.401       .  A
C1522      H1527   1.084       .  S
C1523      C1524   1.416       .  A
C1523     Br1531   1.921       .  S
C1524      C1525   1.408       .  A
C1525      C1526   1.398       .  A
C1525      H1528   1.083       .  S
C1526     Br1532   1.920       .  S
C1533      C1534   1.408       .  A
C1533      C1538   1.402       .  A
C1534      C1535   1.403       .  A
C1534     Br1550   1.915       .  S
C1535      C1536   1.407       .  A
C1535      H1539   1.083   1_545  S
C1536      C1537   1.413       .  A
C1536      C1540   1.491   1_545  S
C1537      C1538   1.397       .  A
C1537     Br1549   1.921       .  S
C1538      H1541   1.084       .  S
C1540      C1542   1.407       .  A
C1540      C1546   1.412       .  A
C1542      C1543   1.405       .  A
C1542      H1547   1.083       .  S
C1543      C1544   1.412       .  A
C1543     Br1551   1.914       .  S
C1544      C1545   1.403       .  A
C1545      C1546   1.394       .  A
C1545      H1548   1.084       .  S
C1546     Br1552   1.922       .  S
