geometry optimzed in LAMMPS
_audit_creation_date              2020-11-30 
_audit_creation_method            'lammps2cif' 
_symmetry_space_group_name_H-M    'P1' 
_symmetry_Int_Tables_number       1 
_symmetry_cell_setting            triclinic 
loop_ 
_symmetry_equiv_pos_as_xyz 
  x,y,z 
_cell_length_a                    56.98244202 
_cell_length_b                    56.96823848647036 
_cell_length_c                    56.984011831516405 
_cell_angle_alpha                 90.0017680934447 
_cell_angle_beta                  90.05444525506529 
_cell_angle_gamma                 89.88943164906233 
loop_ 
_atom_site_label 
_atom_site_type_symbol 
_atom_site_fract_x 
_atom_site_fract_y 
_atom_site_fract_z 
_atom_site_charge 
Zn1        Zn  0.49734889  0.53083967  0.99125115     1.49700
Zn2        Zn  0.48534631  0.47730451  0.97737315     1.49400
Zn3        Zn  0.53735845  0.49137196  0.99138268     1.49100
Zn4        Zn  0.49661376  0.49225907  0.03082436     1.49500
O5          O  0.50418700  0.49782331  0.99769999    -1.82400
O6          O  0.47172055  0.53322868  0.96774906    -0.73100
O7          O  0.50550933  0.45685144  0.95616802    -0.72900
O8          O  0.55328064  0.52052493  0.97870997    -0.72400
O9          O  0.46342589  0.49652816  0.95726192    -0.73100
O10         O  0.52514751  0.54730952  0.97725690    -0.72700
O11         O  0.54189065  0.46516250  0.96745528    -0.73300
O12         O  0.52523243  0.48064970  0.04792362    -0.72600
O13         O  0.46520556  0.45589738  0.99695532    -0.73400
O14         O  0.55352006  0.48111550  0.02105907    -0.72800
O15         O  0.47135734  0.46771402  0.03371250    -0.82900
O16         O  0.48524853  0.52152055  0.04775080    -0.73200
O17         O  0.48638141  0.54867752  0.02005769    -0.73000
C18         C  0.46003526  0.51857391  0.95569604     0.78800
C19         C  0.52759124  0.45358840  0.95474587     0.79300
C20         C  0.54626380  0.54114772  0.97344034     0.78300
C21         C  0.54651534  0.47734191  0.04194593     0.78700
C22         C  0.46107900  0.45454840  0.01886922     0.79800
C23         C  0.48205464  0.54264093  0.04114704     0.78800
Zn24       Zn  0.52209665  0.02185216  0.51345320     1.49700
Zn25       Zn  0.46909398  0.01163667  0.49777191     1.49400
Zn26       Zn  0.51019805  0.00341408  0.46098433     1.49100
Zn27       Zn  0.50459890  0.96876597  0.50502585     1.49500
O28         O  0.50172018  0.00146034  0.49437748    -1.82400
O29         O  0.50261421  0.04573248  0.53166225    -0.73100
O30         O  0.45453701  0.02063240  0.46689500    -0.72900
O31         O  0.53717000  0.02562202  0.45627515    -0.72400
O32         O  0.46631011  0.03959987  0.51867916    -0.73100
O33         O  0.54440715  0.03983270  0.49200140    -0.72700
O34         O  0.48330414  0.01599709  0.44106548    -0.73300
O35         O  0.51400387  0.94741865  0.47822547    -0.72600
O36         O  0.44948859  0.98665456  0.51273235    -0.73400
O37         O  0.51961481  0.97155255  0.44841820    -0.72800
O38         O  0.47362937  0.95665765  0.51767554    -0.73300
O39         O  0.52898699  0.96595798  0.53102854    -0.73200
O40         O  0.54081831  0.00262715  0.53744679    -0.73000
C41         C  0.48080132  0.05076962  0.53137520     0.78800
C42         C  0.46231895  0.02196945  0.44601463     0.79300
C43         C  0.54842914  0.03920660  0.46996139     0.78300
C44         C  0.51980165  0.95085629  0.45691488     0.78700
C45         C  0.45329844  0.96580303  0.51971985     0.79800
C46         C  0.54150961  0.98073578  0.54225833     0.78800
Zn47       Zn  0.02248285  0.51823144  0.52141669     1.49700
Zn48       Zn  0.00749365  0.50639375  0.46898546     1.49400
Zn49       Zn  0.00857362  0.46485135  0.50758724     1.49100
Zn50       Zn  0.96942001  0.50472243  0.51065515     1.49500
O51         O  0.00206585  0.49842269  0.50212315    -1.82400
O52         O  0.04142856  0.54068103  0.50171010    -0.73100
O53         O  0.02102648  0.47836941  0.45158134    -0.72900
O54         O  0.03279408  0.46148440  0.53372399    -0.72400
O55         O  0.03019205  0.53353954  0.46513205    -0.73100
O56         O  0.04404951  0.49827115  0.54088418    -0.72700
O57         O  0.02179757  0.44968919  0.47791579    -0.73300
O58         O  0.95283845  0.47544542  0.52185532    -0.72600
O59         O  0.97724536  0.51734602  0.45381710    -0.73400
O60         O  0.97894032  0.44694145  0.51713781    -0.72800
O61         O  0.95160517  0.51648657  0.48277402    -0.73300
O62         O  0.96684424  0.53003042  0.53538308    -0.73200
O63         O  0.00393587  0.53873707  0.54360274    -0.73000
C64         C  0.04214392  0.54533343  0.47986476     0.78800
C65         C  0.02580927  0.45719549  0.45718667     0.79300
C66         C  0.04564852  0.47628019  0.54457558     0.78300
C67         C  0.95830664  0.45375467  0.52262925     0.78700
C68         C  0.95658112  0.52106027  0.46152384     0.79800
C69         C  0.98204350  0.54181397  0.54674563     0.78800
Zn70       Zn  0.97753535  0.98082200  0.98198309     1.49700
Zn71       Zn  0.99185129  0.03415576  0.99193267     1.49400
Zn72       Zn  0.99054010  0.99724368  0.03422444     1.49100
Zn73       Zn  0.03031504  0.99442740  0.99471496     1.49500
O74         O  0.99744285  0.00158512  0.00079127    -1.82400
O75         O  0.95455379  0.99953878  0.96266817    -0.73100
O76         O  0.98223865  0.05320678  0.02009498    -0.72900
O77         O  0.96669839  0.97147276  0.03879890    -0.72400
O78         O  0.96530052  0.03652069  0.96867915    -0.73100
O79         O  0.95905130  0.95882640  0.00265899    -0.72700
O80         O  0.97762795  0.02714627  0.04854859    -0.73300
O81         O  0.04608908  0.98286225  0.02363334    -0.72600
O82         O  0.02068937  0.04915349  0.97789452    -0.73400
O83         O  0.01985040  0.98755173  0.05205905    -0.72800
O84         O  0.04844959  0.02267796  0.98365456    -0.73300
O85         O  0.03353548  0.96973371  0.96991393    -0.73200
O86         O  0.99684301  0.96123694  0.95970167    -0.73000
C87         C  0.95200763  0.02143571  0.95893702     0.78800
C88         C  0.97612420  0.04815752  0.04098074     0.79300
C89         C  0.95618908  0.95758201  0.02478858     0.78300
C90         C  0.04035928  0.98183399  0.04515752     0.78700
C91         C  0.04214628  0.04296410  0.97674493     0.79800
C92         C  0.01889463  0.95851069  0.95735861     0.78800
Zn93       Zn  0.47388460  0.76598618  0.26904111     1.49700
Zn94       Zn  0.48671247  0.75416630  0.21560123     1.49400
Zn95       Zn  0.52645069  0.75073536  0.25542244     1.49100
Zn96       Zn  0.48407624  0.71332235  0.25381478     1.49500
O97         O  0.49293572  0.74611146  0.24845059    -1.82400
O98         O  0.45250088  0.78708420  0.25053735    -0.73100
O99         O  0.51605778  0.76702105  0.20007368    -0.72900
O100        O  0.53069873  0.77471517  0.28164220    -0.72400
O101        O  0.46095745  0.77874882  0.21342120    -0.73100
O102        O  0.49414208  0.78572890  0.28992778    -0.72700
O103        O  0.54402150  0.76242959  0.22669959    -0.73300
O104        O  0.51227322  0.69416406  0.26262699    -0.72600
O105        O  0.47548705  0.72552611  0.19731572    -0.73400
O106        O  0.54125106  0.72003032  0.26602378    -0.72800
O107        O  0.46954912  0.69887526  0.22490096    -0.73300
O108        O  0.46191332  0.70984324  0.28123887    -0.73200
O109        O  0.45406589  0.74675907  0.29112581    -0.73000
C110        C  0.44905795  0.79004242  0.22866282     0.78800
C111        C  0.53753130  0.76869691  0.20620540     0.79300
C112        C  0.51613767  0.78689479  0.29353308     0.78300
C113        C  0.53343627  0.69912292  0.26770385     0.78700
C114        C  0.46834364  0.70522387  0.20349929     0.79800
C115        C  0.45167121  0.72479706  0.29428506     0.78800
Zn116      Zn  0.53440878  0.26004043  0.74681940     1.49700
Zn117      Zn  0.49411791  0.22081371  0.74338773     1.49400
Zn118      Zn  0.48208977  0.27382299  0.76052562     1.49100
Zn119      Zn  0.49476755  0.26297912  0.70702476     1.49500
O120        O  0.50130602  0.25435607  0.73956799    -1.82400
O121        O  0.55075975  0.22971522  0.75531721    -0.73100
O122        O  0.46883898  0.21674587  0.76790300    -0.72900
O123        O  0.50202451  0.29169130  0.78411428    -0.72400
O124        O  0.52284980  0.20256268  0.75345150    -0.73100
O125        O  0.53855721  0.28268310  0.77389844    -0.72700
O126        O  0.45968591  0.25332306  0.77846153    -0.73300
O127        O  0.47133238  0.28927979  0.70507966    -0.72600
O128        O  0.48260651  0.20601047  0.71307144    -0.73400
O129        O  0.46272154  0.29743148  0.74223029    -0.72800
O130        O  0.48198099  0.23600124  0.68834944    -0.73300
O131        O  0.52417720  0.27320542  0.69078822    -0.73200
O132        O  0.55106202  0.27345840  0.71888758    -0.73000
C133        C  0.54403661  0.20849147  0.75735971     0.78800
C134        C  0.45664700  0.23122140  0.77986010     0.79300
C135        C  0.52412312  0.29362178  0.78701516     0.78300
C136        C  0.46015757  0.30117680  0.72033190     0.78700
C137        C  0.47858913  0.21438517  0.69272581     0.79800
C138        C  0.54508507  0.27696076  0.69765269     0.78800
Zn139      Zn  0.28602113  0.51262185  0.74488182     1.49700
Zn140      Zn  0.24626948  0.51077880  0.78426485     1.49400
Zn141      Zn  0.23280063  0.52579615  0.73192380     1.49100
Zn142      Zn  0.24726510  0.47247873  0.74396217     1.49500
O143        O  0.25303540  0.50550563  0.75112602    -1.82400
O144        O  0.30262702  0.52266287  0.77423593    -0.73100
O145        O  0.22145466  0.53537085  0.78871543    -0.72900
O146        O  0.25223734  0.54709323  0.71103509    -0.72400
O147        O  0.27519918  0.52061844  0.80170850    -0.73100
O148        O  0.28895707  0.53899933  0.72175046    -0.72700
O149        O  0.21221337  0.54637258  0.75241126    -0.73300
O150        O  0.22132572  0.46944959  0.72044917    -0.72600
O151        O  0.23445368  0.48180796  0.79987350    -0.73400
O152        O  0.21124081  0.50618301  0.71170335    -0.72800
O153        O  0.23749336  0.45418026  0.77268293    -0.73300
O154        O  0.27586168  0.45708011  0.73024281    -0.73200
O155        O  0.30328924  0.48459619  0.73167938    -0.73000
C156        C  0.29620791  0.52486364  0.79550079     0.78800
C157        C  0.20953474  0.54787702  0.77455751     0.79300
C158        C  0.27427228  0.55064844  0.70958140     0.78300
C159        C  0.20873443  0.48409762  0.70920396     0.78700
C160        C  0.23242561  0.46054691  0.79349101     0.79800
C161        C  0.29684204  0.46380170  0.72665615     0.78800
Zn162      Zn  0.35999898  0.35669972  0.88913990     1.49700
Zn163      Zn  0.35875106  0.39759316  0.85095796     1.49400
Zn164      Zn  0.39988902  0.39546287  0.88932738     1.49100
Zn165      Zn  0.39840685  0.35829621  0.84776359     1.49500
O166        O  0.37924862  0.37700388  0.86925153    -1.82400
O167        O  0.32561460  0.36394174  0.88567119    -0.73100
O168        O  0.36457312  0.43123202  0.85946091    -0.72900
O169        O  0.39476708  0.38825162  0.92337220    -0.72400
O170        O  0.32470089  0.39072438  0.85730235    -0.73100
O171        O  0.36833770  0.35962422  0.92336852    -0.72700
O172        O  0.39418797  0.42987423  0.88493245    -0.73300
O173        O  0.43305486  0.36299348  0.85333520    -0.72600
O174        O  0.36418463  0.39403203  0.81613805    -0.73400
O175        O  0.43367974  0.38861472  0.88276631    -0.72800
O176        O  0.39145294  0.36614777  0.81412484    -0.73300
O177        O  0.39153915  0.32414277  0.85202655    -0.73200
O178        O  0.36423622  0.32320524  0.87995030    -0.73000
C179        C  0.31430022  0.37733578  0.87181990     0.78800
C180        C  0.37926829  0.44135294  0.87288877     0.79300
C181        C  0.38208419  0.37346040  0.93420113     0.78300
C182        C  0.44419695  0.37539810  0.86818493     0.78700
C183        C  0.37760111  0.38065750  0.80427607     0.79800
C184        C  0.37743587  0.31294933  0.86518221     0.78800
N185        N  0.21313215  0.37713967  0.87311262    -0.01800
C186        C  0.19878005  0.39176426  0.86085931     0.00800
C187        C  0.17554206  0.38665285  0.86561605    -0.22100
C188        C  0.17557204  0.36818168  0.88118801    -0.22300
C189        C  0.19881754  0.36266781  0.88546292     0.00700
H190        H  0.16023427  0.39534669  0.85845459     0.14500
H191        H  0.16031681  0.35972265  0.88863672     0.14500
N192        N  0.37678377  0.54212759  0.87878708    -0.01800
C193        C  0.38871582  0.55606809  0.89395567     0.00800
C194        C  0.38326212  0.57938789  0.88994275    -0.22100
C195        C  0.36749596  0.57979080  0.87162311    -0.22300
C196        C  0.36375078  0.55669532  0.86513449     0.00700
H197        H  0.39017144  0.59447292  0.89917078     0.14500
H198        H  0.35953622  0.59524453  0.86394306     0.14500
N199        N  0.54484299  0.37015286  0.87377609    -0.01800
C200        C  0.55937614  0.38231330  0.88833513     0.00800
C201        C  0.58225712  0.37476441  0.88522841    -0.22100
C202        C  0.58174431  0.35745143  0.86829396    -0.22300
C203        C  0.55856360  0.35489628  0.86154378     0.00700
H204        H  0.59768403  0.38123479  0.89421552     0.14500
H205        H  0.59668521  0.34784377  0.86154618     0.14500
N206        N  0.37965008  0.38480653  0.70322487    -0.01800
C207        C  0.36557133  0.39799269  0.68909913     0.00800
C208        C  0.37163710  0.39461460  0.66584826    -0.22100
C209        C  0.39008981  0.37899379  0.66564872    -0.22300
C210        C  0.39462337  0.37307303  0.68876989     0.00700
H211        H  0.36352451  0.40263686  0.65064672     0.14500
H212        H  0.39906148  0.37244601  0.65024739     0.14500
N213        N  0.37337825  0.21242263  0.85968031    -0.01800
C214        C  0.35986810  0.19803633  0.87306869     0.00800
C215        C  0.36298300  0.17496790  0.86615087    -0.22100
C216        C  0.37888652  0.17517858  0.84795310    -0.22300
C217        C  0.38501939  0.19836250  0.84431650     0.00700
H218        H  0.35466011  0.15963672  0.87359888     0.14500
H219        H  0.38546509  0.16003974  0.83855064     0.14500
N220        N  0.38058033  0.37235186  0.03523839    -0.01800
C221        C  0.39350570  0.38552131  0.05033311     0.00800
C222        C  0.38731127  0.38057502  0.07324749    -0.22100
C223        C  0.37000544  0.36373560  0.07223623    -0.22300
C224        C  0.36618248  0.35900122  0.04873512     0.00700
H225        H  0.39458365  0.38836835  0.08896459     0.14500
H226        H  0.36111540  0.35584169  0.08702125     0.14500
Zn227      Zn  0.25961484  0.21571141  0.98402791     1.49700
Zn228      Zn  0.22046999  0.25551213  0.98795401     1.49400
Zn229      Zn  0.26167165  0.25346584  0.02633120     1.49100
Zn230      Zn  0.27380528  0.26843966  0.97343467     1.49500
O231        O  0.25385844  0.24835498  0.99305744    -1.82400
O232        O  0.22984503  0.19959998  0.97387454    -0.73100
O233        O  0.20479626  0.26658647  0.01777821    -0.72900
O234        O  0.27376985  0.22320510  0.04088737    -0.72400
O235        O  0.20222867  0.22671885  0.97745415    -0.73100
O236        O  0.27191496  0.19766592  0.01175484    -0.72700
O237        O  0.23281474  0.26480281  0.04471067    -0.73300
O238        O  0.29468802  0.28909465  0.99296710    -0.72600
O239        O  0.21723565  0.28110868  0.96348805    -0.73400
O240        O  0.28737865  0.27799830  0.02966976    -0.72800
O241        O  0.25404256  0.28935946  0.95319897    -0.73300
O242        O  0.29459162  0.24977727  0.95168110    -0.73200
O243        O  0.28318136  0.21296955  0.95748189    -0.73000
C244        C  0.20838888  0.20574951  0.97262763     0.78800
C245        C  0.21158405  0.26923259  0.03891020     0.79300
C246        C  0.27683968  0.20246462  0.03302207     0.78300
C247        C  0.29840208  0.29069936  0.01492497     0.78700
C248        C  0.23203611  0.29259381  0.95127336     0.79800
C249        C  0.29583895  0.22800875  0.94686655     0.78800
Zn250      Zn  0.76648104  0.47878135  0.27701093     1.49700
Zn251      Zn  0.75023745  0.53158673  0.26692582     1.49400
Zn252      Zn  0.75337446  0.49382466  0.22509606     1.49100
Zn253      Zn  0.71283271  0.49003665  0.26294348     1.49500
O254        O  0.74574661  0.49864264  0.25808776    -1.82400
O255        O  0.78521757  0.49772359  0.30003395    -0.73100
O256        O  0.76110023  0.55044247  0.23878952    -0.72900
O257        O  0.78024059  0.47146144  0.22098675    -0.72400
O258        O  0.77496248  0.53457739  0.29232700    -0.73100
O259        O  0.78970744  0.46076357  0.25723459    -0.72700
O260        O  0.76238236  0.52420170  0.20995792    -0.73300
O261        O  0.69744480  0.47890622  0.23302116    -0.72600
O262        O  0.71994008  0.54585518  0.27927710    -0.73400
O263        O  0.72637024  0.48028838  0.20714881    -0.72800
O264        O  0.69404234  0.51737419  0.27493858    -0.73300
O265        O  0.71031215  0.46346357  0.28600051    -0.73200
O266        O  0.74754006  0.45508033  0.29459593    -0.73000
C267        C  0.78706401  0.51964867  0.30382975     0.78800
C268        C  0.76515535  0.54505876  0.21744054     0.79300
C269        C  0.79280467  0.45963439  0.23516098     0.78300
C270        C  0.70518915  0.47564305  0.21233223     0.78700
C271        C  0.69897505  0.53827692  0.28105337     0.79800
C272        C  0.72566923  0.45101316  0.29644535     0.78800
Zn273      Zn  0.26831217  0.77846472  0.48393200     1.49700
Zn274      Zn  0.25458530  0.76695436  0.53730504     1.49400
Zn275      Zn  0.21554839  0.76426143  0.49724055     1.49100
Zn276      Zn  0.25626451  0.72542462  0.49940863     1.49500
O277        O  0.24876677  0.75873167  0.50437348    -1.82400
O278        O  0.28672419  0.80196597  0.50305263    -0.73100
O279        O  0.22487527  0.77702222  0.55325302    -0.72900
O280        O  0.21151617  0.78724211  0.47065751    -0.72400
O281        O  0.27696788  0.79423891  0.54005862    -0.73100
O282        O  0.24805492  0.79755502  0.46161316    -0.72700
O283        O  0.19836100  0.77804178  0.52492988    -0.73300
O284        O  0.22771357  0.70717166  0.48732575    -0.72600
O285        O  0.26747465  0.73947320  0.55563609    -0.73400
O286        O  0.19933878  0.73403450  0.48885184    -0.72800
O287        O  0.26619860  0.71018152  0.53000074    -0.73300
O288        O  0.28403237  0.72234471  0.47717925    -0.73200
O289        O  0.29204891  0.75876935  0.46590605    -0.73000
C290        C  0.28819071  0.80620544  0.52493343     0.78800
C291        C  0.20415820  0.78150734  0.54621127     0.79300
C292        C  0.22592698  0.79939671  0.45871751     0.78300
C293        C  0.20616672  0.71305018  0.48521585     0.78700
C294        C  0.27042254  0.71789111  0.55057395     0.79800
C295        C  0.29645372  0.73680330  0.46542597     0.78800
Zn296      Zn  0.63841452  0.64217506  0.14780439     1.49700
Zn297      Zn  0.64185944  0.60295900  0.10774390     1.49400
Zn298      Zn  0.59861504  0.60396494  0.14417522     1.49100
Zn299      Zn  0.60190636  0.64244156  0.10448990     1.49500
O300        O  0.62033569  0.62289109  0.12591958    -1.82400
O301        O  0.67303457  0.63668135  0.14387263    -0.73100
O302        O  0.63572272  0.56859930  0.11463091    -0.72900
O303        O  0.60310946  0.60799694  0.17884988    -0.72400
O304        O  0.67576713  0.61007237  0.11563692    -0.73100
O305        O  0.63091880  0.63491154  0.18181075    -0.72700
O306        O  0.60397805  0.57026755  0.13742220    -0.73300
O307        O  0.56705316  0.63678852  0.10808789    -0.72600
O308        O  0.63767438  0.60831973  0.07286025    -0.73400
O309        O  0.56499779  0.61119896  0.13720570    -0.72800
O310        O  0.61021155  0.63588555  0.07060020    -0.73300
O311        O  0.60776118  0.67662283  0.11147880    -0.73200
O312        O  0.63230291  0.67637870  0.14144221    -0.73000
C313        C  0.68538927  0.62377260  0.13045934     0.78800
C314        C  0.61948847  0.55868862  0.12635020     0.79300
C315        C  0.61659747  0.62065267  0.19131228     0.78300
C316        C  0.55501820  0.62430851  0.12216330     0.78700
C317        C  0.62455330  0.62182181  0.06073115     0.79800
C318        C  0.62002111  0.68767670  0.12654913     0.78800
N319        N  0.63091118  0.61915795  0.95921114    -0.01800
C320        C  0.64734330  0.63117783  0.94669483     0.00800
C321        C  0.64582750  0.62533353  0.92317214    -0.22100
C322        C  0.62777189  0.60952459  0.92100847    -0.22300
C323        C  0.61895939  0.60593418  0.94330395     0.00700
H324        H  0.65649866  0.63211553  0.90901945     0.14500
H325        H  0.62163028  0.60161122  0.90488028     0.14500
N326        N  0.62128480  0.46013535  0.13169093    -0.01800
C327        C  0.61217040  0.44674849  0.11383783     0.00800
C328        C  0.62235470  0.42477368  0.11323412    -0.22100
C329        C  0.63893411  0.42432996  0.13052154    -0.22300
C330        C  0.63842255  0.44604446  0.14119782     0.00700
H331        H  0.61889015  0.41095889  0.10066431     0.14500
H332        H  0.65096981  0.41008014  0.13421713     0.14500
N333        N  0.78672404  0.62826680  0.13801610    -0.01800
C334        C  0.80159593  0.64187554  0.12530140     0.00800
C335        C  0.82444132  0.63870509  0.13284560    -0.22100
C336        C  0.82366972  0.62264200  0.15085403    -0.22300
C337        C  0.80037737  0.61645906  0.15366380     0.00700
H338        H  0.83997833  0.64712920  0.12594961     0.14500
H339        H  0.83850947  0.61605270  0.16073047     0.14500
N340        N  0.45366486  0.62727904  0.11792223    -0.01800
C341        C  0.44103414  0.61395559  0.10266402     0.00800
C342        C  0.41738852  0.61896650  0.10496628    -0.22100
C343        C  0.41541989  0.63586356  0.12218274    -0.22300
C344        C  0.43791709  0.64064783  0.12988329     0.00700
H345        H  0.40299739  0.61092413  0.09526322     0.14500
H346        H  0.39921026  0.64357684  0.12875416     0.14500
N347        N  0.62140174  0.78967134  0.12665776    -0.01800
C348        C  0.63602459  0.80390890  0.11440613     0.00800
C349        C  0.63119428  0.82714380  0.11952373    -0.22100
C350        C  0.61306702  0.82714752  0.13559115    -0.22300
C351        C  0.60736259  0.80390978  0.13964918     0.00700
H352        H  0.63997260  0.84239875  0.11243677     0.14500
H353        H  0.60500651  0.84241054  0.14352855     0.14500
N354        N  0.60891827  0.61262158  0.29225541    -0.01800
C355        C  0.59188212  0.62381389  0.30474805     0.00800
C356        C  0.59257360  0.61669651  0.32795631    -0.22100
C357        C  0.61073673  0.60088487  0.32992601    -0.22300
C358        C  0.62047512  0.59865458  0.30783188     0.00700
H359        H  0.58138131  0.62274110  0.34205754     0.14500
H360        H  0.61644197  0.59218823  0.34583156     0.14500
Zn361      Zn  0.73053539  0.72821818  0.02651395     1.49700
Zn362      Zn  0.74597567  0.74013573  0.97359062     1.49400
Zn363      Zn  0.74389572  0.78102792  0.01238770     1.49100
Zn364      Zn  0.78372856  0.74197245  0.01499637     1.49500
O365        O  0.75092561  0.74778893  0.00683665    -1.82400
O366        O  0.71001982  0.70718571  0.00668271    -0.73100
O367        O  0.73330019  0.76835447  0.95602824    -0.72900
O368        O  0.71781645  0.78489486  0.03609892    -0.72400
O369        O  0.72190082  0.71443036  0.97027949    -0.73100
O370        O  0.70948934  0.74831685  0.04698142    -0.72700
O371        O  0.73342388  0.79670007  0.98253764    -0.73300
O372        O  0.80033148  0.77179530  0.02416056    -0.72600
O373        O  0.77623570  0.72884205  0.95804746    -0.73400
O374        O  0.77226132  0.79864776  0.02434435    -0.72800
O375        O  0.80141352  0.72845720  0.98777997    -0.73300
O376        O  0.78649285  0.71893249  0.04164693    -0.73200
O377        O  0.74974640  0.70728176  0.04780919    -0.73000
C378        C  0.70892654  0.70333581  0.98468925     0.78800
C379        C  0.72942277  0.78964937  0.96172312     0.79300
C380        C  0.70621753  0.77039682  0.04850400     0.78300
C381        C  0.79361253  0.79283733  0.02759241     0.78700
C382        C  0.79667227  0.72473066  0.96628688     0.79800
C383        C  0.77162051  0.70613285  0.05227141     0.78800
Zn384      Zn  0.10683155  0.64909918  0.65069949     1.49700
Zn385      Zn  0.10692805  0.60922335  0.61149676     1.49400
Zn386      Zn  0.14654424  0.64812370  0.61070813     1.49100
Zn387      Zn  0.14593415  0.60873015  0.65118759     1.49500
O388        O  0.12662003  0.62893102  0.63114508    -1.82400
O389        O  0.07251197  0.64251041  0.64485332    -0.73100
O390        O  0.11552432  0.61249692  0.57780320    -0.72900
O391        O  0.14002393  0.68263008  0.61545650    -0.72400
O392        O  0.07281698  0.61665109  0.61557371    -0.73100
O393        O  0.11263362  0.68326928  0.64329758    -0.72700
O394        O  0.14248570  0.64009875  0.57632638    -0.73300
O395        O  0.18017577  0.61545341  0.64655496    -0.72600
O396        O  0.11145699  0.57513910  0.61856686    -0.73400
O397        O  0.18046639  0.64231321  0.61817879    -0.72800
O398        O  0.14082510  0.57449412  0.64418745    -0.73300
O399        O  0.13855601  0.61389984  0.68527650    -0.73200
O400        O  0.11313112  0.64360121  0.68523995    -0.73000
C401        C  0.06183293  0.62962063  0.63004819     0.78800
C402        C  0.12981593  0.62486004  0.56604640     0.79300
C403        C  0.12620171  0.69382070  0.62901879     0.78300
C404        C  0.19112693  0.62905137  0.63267139     0.78700
C405        C  0.12607479  0.56393725  0.63117826     0.79800
C406        C  0.12568875  0.62859813  0.69611926     0.78800
N407        N  0.96104169  0.62431466  0.62845258    -0.01800
C408        C  0.94581950  0.63721663  0.64155359     0.00800
C409        C  0.92298362  0.63083412  0.63640657    -0.22100
C410        C  0.92423589  0.61343115  0.61961309    -0.22300
C411        C  0.94779559  0.60971207  0.61502858     0.00700
H412        H  0.90714417  0.63804969  0.64401493     0.14500
H413        H  0.90954826  0.60443083  0.61163202     0.14500
N414        N  0.12488841  0.79511667  0.63095286    -0.01800
C415        C  0.13767916  0.81065339  0.61813095     0.00800
C416        C  0.13309488  0.83335084  0.62541098    -0.22100
C417        C  0.11700865  0.83181291  0.64331812    -0.22300
C418        C  0.11214807  0.80822902  0.64633573     0.00700
H419        H  0.14054209  0.84931687  0.61835033     0.14500
H420        H  0.10948903  0.84635069  0.65296719     0.14500
N421        N  0.12472033  0.62754431  0.46858430    -0.01800
C422        C  0.13290378  0.64741200  0.45761097     0.00800
C423        C  0.11975682  0.65257343  0.43791310    -0.22100
C424        C  0.10250400  0.63604522  0.43650616    -0.22300
C425        C  0.10551459  0.62122403  0.45538982     0.00700
H426        H  0.12203151  0.66739652  0.42626519     0.14500
H427        H  0.08860332  0.63536896  0.42356842     0.14500
N428        N  0.12641433  0.62628705  0.79725226    -0.01800
C429        C  0.14042258  0.61306071  0.81131820     0.00800
C430        C  0.13507270  0.61713870  0.83463848    -0.22100
C431        C  0.11718533  0.63347648  0.83491288    -0.22300
C432        C  0.11221058  0.63877636  0.81175156     0.00700
H433        H  0.14333790  0.60917636  0.84978450     0.14500
H434        H  0.10872493  0.64069247  0.85030526     0.14500
N435        N  0.12586708  0.46277048  0.62909617    -0.01800
C436        C  0.13850748  0.44909213  0.64408430     0.00800
C437        C  0.13385873  0.42563681  0.63995505    -0.22100
C438        C  0.11799798  0.42478533  0.62177884    -0.22300
C439        C  0.11328734  0.44774444  0.61544203     0.00700
H440        H  0.14139599  0.41073541  0.64902806     0.14500
H441        H  0.11065575  0.40908904  0.61401222     0.14500
N442        N  0.29163631  0.63692620  0.63408549    -0.01800
C443        C  0.30692250  0.62405406  0.64714715     0.00800
C444        C  0.32953837  0.63211408  0.64386215    -0.22100
C445        C  0.32810489  0.65046819  0.62816454    -0.22300
C446        C  0.30465429  0.65305135  0.62231382     0.00700
H447        H  0.34540932  0.62523948  0.65185868     0.14500
H448        H  0.34268088  0.66063928  0.62142056     0.14500
Zn449      Zn  0.99321456  0.71545938  0.76210931     1.49700
Zn450      Zn  0.99314264  0.75477132  0.72208533     1.49400
Zn451      Zn  0.97906875  0.76812328  0.77511482     1.49100
Zn452      Zn  0.03236051  0.75605609  0.76150117     1.49500
O453        O  0.99938936  0.74857504  0.75527662    -1.82400
O454        O  0.98220525  0.69796804  0.73279763    -0.73100
O455        O  0.96727228  0.77820597  0.71871715    -0.72900
O456        O  0.95951406  0.74848670  0.79738208    -0.72400
O457        O  0.98186539  0.72580883  0.70571584    -0.73100
O458        O  0.96904969  0.71179626  0.78805600    -0.72700
O459        O  0.95697560  0.78733436  0.75529615    -0.73300
O460        O  0.03519609  0.78143071  0.78576789    -0.72600
O461        O  0.02175248  0.76687828  0.70474329    -0.73400
O462        O  0.99827334  0.79039098  0.79471373    -0.72800
O463        O  0.04875310  0.76791916  0.73271239    -0.73300
O464        O  0.05008381  0.72764554  0.77297274    -0.73200
O465        O  0.02267931  0.70011793  0.77400144    -0.73000
C466        C  0.97838584  0.70460544  0.71173148     0.78800
C467        C  0.95443524  0.78932540  0.73319163     0.79300
C468        C  0.95752599  0.72643374  0.80046769     0.78300
C469        C  0.02026039  0.79348008  0.79719857     0.78700
C470        C  0.04261305  0.77123255  0.71150537     0.79800
C471        C  0.04378653  0.70665649  0.77729907     0.78800
Zn472      Zn  0.85360358  0.88955468  0.85783641     1.49700
Zn473      Zn  0.89372719  0.85067070  0.85973751     1.49400
Zn474      Zn  0.89341360  0.89241208  0.89720944     1.49100
Zn475      Zn  0.85459246  0.85268202  0.90017075     1.49500
O476        O  0.87380928  0.87127375  0.87869618    -1.82400
O477        O  0.86014339  0.88236226  0.82390931    -0.73100
O478        O  0.92794831  0.85883313  0.86360149    -0.72900
O479        O  0.88646692  0.92584644  0.88986618    -0.72400
O480        O  0.88627113  0.85336575  0.82524849    -0.73100
O481        O  0.85833284  0.92416742  0.86283079    -0.72700
O482        O  0.92723045  0.88748338  0.89009376    -0.73300
O483        O  0.86167054  0.86036562  0.93391510    -0.72600
O484        O  0.88914729  0.81704031  0.86934365    -0.73400
O485        O  0.88894805  0.88811774  0.93199570    -0.72800
O486        O  0.86081806  0.81824452  0.89617307    -0.73300
O487        O  0.82025089  0.85818433  0.89443065    -0.73200
O488        O  0.81953606  0.88249499  0.86388328    -0.73000
C489        C  0.87303573  0.86721921  0.81372138     0.78800
C490        C  0.93839157  0.87381891  0.87645399     0.79300
C491        C  0.87207048  0.93579941  0.87604608     0.78300
C492        C  0.87570411  0.87462324  0.94381416     0.78700
C493        C  0.87535352  0.80683787  0.88363701     0.79800
C494        C  0.80904084  0.87011357  0.87920929     0.78800
N495        N  0.87650647  0.87531708  0.04491508    -0.01800
C496        C  0.86192645  0.86268551  0.05894703     0.00800
C497        C  0.86683977  0.86726121  0.08228247    -0.22100
C498        C  0.88509059  0.88304755  0.08264735    -0.22300
C499        C  0.89068763  0.88777799  0.05951931     0.00700
H500        H  0.85821966  0.85973363  0.09742367     0.14500
H501        H  0.89330344  0.89038614  0.09811284     0.14500
N502        N  0.86623431  0.86199296  0.71293750    -0.01800
C503        C  0.84984251  0.87260214  0.69914625     0.00800
C504        C  0.85280918  0.86566210  0.67604041    -0.22100
C505        C  0.87181390  0.85074946  0.67552135    -0.22300
C506        C  0.87973555  0.84878198  0.69835767     0.00700
H507        H  0.84256612  0.87127493  0.66104537     0.14500
H508        H  0.87914205  0.84238535  0.66013566     0.14500
N509        N  0.88143693  0.70609281  0.88821547    -0.01800
C510        C  0.87026506  0.69136434  0.90334362     0.00800
C511        C  0.87733432  0.66848067  0.89923867    -0.22100
C512        C  0.89315913  0.66915049  0.88096231    -0.22300
C513        C  0.89543198  0.69243348  0.87445652     0.00700
H514        H  0.87149235  0.65293057  0.90841867     0.14500
H515        H  0.90197220  0.65422161  0.87317973     0.14500
N516        N  0.70792877  0.87080847  0.88030608    -0.01800
C517        C  0.69370344  0.88535163  0.86784430     0.00800
C518        C  0.67043376  0.88061543  0.87282648    -0.22100
C519        C  0.67032863  0.86251773  0.88884066    -0.22300
C520        C  0.69353635  0.85683381  0.89312699     0.00700
H521        H  0.65519265  0.88927941  0.86547175     0.14500
H522        H  0.65500982  0.85444222  0.89659592     0.14500
N523        N  0.03928983  0.87781754  0.87600691    -0.01800
C524        C  0.05366700  0.89227087  0.88837386     0.00800
C525        C  0.07688252  0.88673966  0.88393348    -0.22100
C526        C  0.07679956  0.86819441  0.86845122    -0.22300
C527        C  0.05353459  0.86306288  0.86380778     0.00700
H528        H  0.09221283  0.89508501  0.89138544     0.14500
H529        H  0.09206242  0.85938810  0.86136644     0.14500
N530        N  0.86751655  0.03649624  0.87886225    -0.01800
C531        C  0.85388987  0.05033095  0.86495979     0.00800
C532        C  0.85633990  0.07359001  0.87140447    -0.22100
C533        C  0.87198954  0.07408309  0.88982826    -0.22300
C534        C  0.87872148  0.05111232  0.89404242     0.00700
H535        H  0.84764811  0.08857091  0.86357966     0.14500
H536        H  0.87801923  0.08957674  0.89900232     0.14500
Zn537      Zn  0.60417979  0.10237612  0.59796509     1.49700
Zn538      Zn  0.64470281  0.14129117  0.59785035     1.49400
Zn539      Zn  0.60489430  0.14314383  0.63767610     1.49100
Zn540      Zn  0.64234509  0.10221256  0.63785151     1.49500
O541        O  0.62389111  0.12238762  0.61765898    -1.82400
O542        O  0.61228587  0.10650883  0.56366988    -0.73100
O543        O  0.64005461  0.17598585  0.60362163    -0.72900
O544        O  0.57058084  0.13748688  0.63208321    -0.72400
O545        O  0.63862005  0.13532300  0.56359197    -0.73100
O546        O  0.57042657  0.11179478  0.60251277    -0.72700
O547        O  0.61110210  0.17709008  0.62973756    -0.73300
O548        O  0.63995842  0.11232704  0.67112528    -0.72600
O549        O  0.67861856  0.13300053  0.60390960    -0.73400
O550        O  0.61224069  0.13944990  0.67233171    -0.72800
O551        O  0.67617669  0.10422956  0.63020224    -0.73300
O552        O  0.63290381  0.06845624  0.63565813    -0.73200
O553        O  0.60747234  0.06771719  0.60611443    -0.73000
C554        C  0.62581428  0.12057731  0.55279799     0.78800
C555        C  0.62570175  0.18744141  0.61638508     0.79300
C556        C  0.55975967  0.12535663  0.61676524     0.78300
C557        C  0.62749817  0.12677204  0.68265892     0.78700
C558        C  0.68814053  0.11766573  0.61711160     0.79800
C559        C  0.61935980  0.05724769  0.62193150     0.78800
N560        N  0.61308200  0.95693210  0.63298374    -0.01800
C561        C  0.59777642  0.94409683  0.61988315     0.00800
C562        C  0.59876644  0.92076487  0.62655575    -0.22100
C563        C  0.61530766  0.91916650  0.64416996    -0.22300
C564        C  0.62388864  0.94156331  0.64772690     0.00700
H565        H  0.58886701  0.90638041  0.61909134     0.14500
H566        H  0.62092772  0.90330335  0.65299480     0.14500
N567        N  0.63314758  0.11549615  0.45220152    -0.01800
C568        C  0.62156995  0.10146526  0.43678027     0.00800
C569        C  0.63067639  0.10429227  0.41447461    -0.22100
C570        C  0.64847113  0.12058208  0.41627653    -0.22300
C571        C  0.64967656  0.12714026  0.43962399     0.00700
H572        H  0.62490197  0.09561014  0.39860685     0.14500
H573        H  0.65926938  0.12705566  0.40208331     0.14500
N574        N  0.62748150  0.12648705  0.78094228    -0.01800
C575        C  0.63356634  0.10882008  0.79613128     0.00800
C576        C  0.61955055  0.10888666  0.81581391    -0.22100
C577        C  0.60367960  0.12663454  0.81284669    -0.22300
C578        C  0.60849647  0.13692031  0.79143906     0.00700
H579        H  0.62009148  0.09651706  0.83022224     0.14500
H580        H  0.58938406  0.13097768  0.82457686     0.14500
N581        N  0.46008136  0.13717225  0.60636367    -0.01800
C582        C  0.44604484  0.12535983  0.59118851     0.00800
C583        C  0.42322577  0.13343547  0.59287892    -0.22100
C584        C  0.42325277  0.15080987  0.60976273    -0.22300
C585        C  0.44610528  0.15276320  0.61776135     0.00700
H586        H  0.40817642  0.12715914  0.58314619     0.14500
H587        H  0.40821928  0.16081174  0.61568672     0.14500
N588        N  0.78865801  0.11401313  0.62287684    -0.01800
C589        C  0.80330086  0.12853290  0.61093218     0.00800
C590        C  0.82635980  0.12362863  0.61674331    -0.22100
C591        C  0.82588151  0.10555578  0.63278791    -0.22300
C592        C  0.80253269  0.10001086  0.63637928     0.00700
H593        H  0.84186787  0.13229811  0.61005206     0.14500
H594        H  0.84093533  0.09751550  0.64116228     0.14500
N595        N  0.62629813  0.28894059  0.61391623    -0.01800
C596        C  0.63907552  0.30246103  0.59898341     0.00800
C597        C  0.63421492  0.32597056  0.60253514    -0.22100
C598        C  0.61806832  0.32710223  0.62035795    -0.22300
C599        C  0.61338371  0.30423462  0.62697368     0.00700
H600        H  0.64186105  0.34071780  0.59336462     0.14500
H601        H  0.61057024  0.34291695  0.62775241     0.14500
Zn602      Zn  0.75177248  0.02608158  0.75696082     1.49700
Zn603      Zn  0.75055374  0.98439765  0.71876010     1.49400
Zn604      Zn  0.76638438  0.97367470  0.77161355     1.49100
Zn605      Zn  0.71288097  0.98637770  0.76000860     1.49500
O606        O  0.74551009  0.99268621  0.75180813    -1.82400
O607        O  0.76301234  0.04107599  0.72683472    -0.73100
O608        O  0.77398102  0.95792607  0.71573323    -0.72900
O609        O  0.78830503  0.99387752  0.79049983    -0.72400
O610        O  0.76310757  0.01229423  0.70064641    -0.73100
O611        O  0.77660571  0.03026986  0.78222379    -0.72700
O612        O  0.78543090  0.95092964  0.75233814    -0.73300
O613        O  0.71075626  0.96256581  0.78566112    -0.72600
O614        O  0.72043180  0.97305426  0.70352314    -0.73400
O615        O  0.74786181  0.95444552  0.79472591    -0.72800
O616        O  0.69487377  0.97377457  0.73245047    -0.73300
O617        O  0.69617027  0.01543811  0.77106372    -0.73200
O618        O  0.72264921  0.04362905  0.76750183    -0.73000
C619        C  0.76695202  0.03366129  0.70608650     0.78800
C620        C  0.78632991  0.94647627  0.73046269     0.79300
C621        C  0.78964075  0.01596217  0.79352349     0.78300
C622        C  0.72594250  0.95162987  0.79784679     0.78700
C623        C  0.69977195  0.96926708  0.71115578     0.79800
C624        C  0.70196962  0.03693318  0.77266593     0.78800
Zn625      Zn  0.72441413  0.24849373  0.48842837     1.49700
Zn626      Zn  0.76387598  0.20937203  0.49041772     1.49400
Zn627      Zn  0.77811965  0.26249198  0.47878052     1.49100
Zn628      Zn  0.76105562  0.24894530  0.53066266     1.49500
O629        O  0.75703901  0.24237068  0.49709611    -1.82400
O630        O  0.70714149  0.21905124  0.47935812    -0.73100
O631        O  0.79078608  0.20606079  0.46731466    -0.72900
O632        O  0.75968204  0.28187803  0.45539660    -0.72400
O633        O  0.73555441  0.19251891  0.47749877    -0.73100
O634        O  0.72277992  0.27037227  0.46109674    -0.72700
O635        O  0.80149558  0.24291204  0.46032901    -0.73300
O636        O  0.78445528  0.27516880  0.53594319    -0.72600
O637        O  0.77243768  0.19246006  0.52023716    -0.73400
O638        O  0.79608498  0.28475006  0.49989865    -0.72800
O639        O  0.77178104  0.21980473  0.54795473    -0.73300
O640        O  0.73070995  0.25986299  0.54525415    -0.73200
O641        O  0.70656731  0.26314581  0.51489760    -0.73000
C642        C  0.71409044  0.19827427  0.47500293     0.78800
C643        C  0.80409418  0.22089763  0.45716865     0.79300
C644        C  0.73794504  0.28255369  0.45022405     0.78300
C645        C  0.79668223  0.28767938  0.52205801     0.78700
C646        C  0.77505212  0.19859321  0.54157084     0.79800
C647        C  0.71088820  0.26561556  0.53665065     0.78800
Zn648      Zn  0.35183683  0.86073557  0.39649791     1.49700
Zn649      Zn  0.39250179  0.89929945  0.39364714     1.49400
Zn650      Zn  0.38894831  0.85967093  0.35449541     1.49100
Zn651      Zn  0.35032117  0.89991543  0.35635345     1.49500
O652        O  0.37084150  0.87992246  0.37535263    -1.82400
O653        O  0.35748804  0.87024042  0.43027239    -0.73100
O654        O  0.42576120  0.88801516  0.38925668    -0.72900
O655        O  0.38370169  0.82578691  0.36224528    -0.72400
O656        O  0.38522492  0.89761167  0.42835625    -0.73100
O657        O  0.35921833  0.82601154  0.39262660    -0.72700
O658        O  0.42362812  0.86407935  0.35848536    -0.73300
O659        O  0.35163429  0.89127510  0.32190677    -0.72600
O660        O  0.39038946  0.93334743  0.38354992    -0.73400
O661        O  0.38050068  0.86496919  0.32078092    -0.72800
O662        O  0.36012852  0.93362677  0.35887283    -0.73300
O663        O  0.31669326  0.89707444  0.36650543    -0.73200
O664        O  0.31739234  0.86605092  0.39029741    -0.73000
C665        C  0.37093670  0.88513398  0.44013901     0.78800
C666        C  0.43543971  0.87465197  0.37416872     0.79300
C667        C  0.37220001  0.81505074  0.37804614     0.78300
C668        C  0.36513578  0.87756268  0.31054097     0.78700
C669        C  0.37634086  0.94427381  0.36994815     0.79800
C670        C  0.30624930  0.88183766  0.37901195     0.78800
N671        N  0.20544673  0.88262454  0.37966797    -0.01800
C672        C  0.19086796  0.86956483  0.39322773     0.00800
C673        C  0.16776545  0.87458999  0.38759166    -0.22100
C674        C  0.16825863  0.89125508  0.36998569    -0.22300
C675        C  0.19163579  0.89583630  0.36540360     0.00700
H676        H  0.15225028  0.86690878  0.39534574     0.14500
H677        H  0.15322136  0.89906391  0.36137467     0.14500
N678        N  0.53512491  0.86075130  0.38220764    -0.01800
C679        C  0.54933800  0.87230403  0.39744185     0.00800
C680        C  0.57204885  0.86393761  0.39560941    -0.22100
C681        C  0.57177569  0.84672229  0.37856278    -0.22300
C682        C  0.54888828  0.84510699  0.37061956     0.00700
H683        H  0.58724162  0.87007249  0.40520845     0.14500
H684        H  0.58670933  0.83675150  0.37234711     0.14500
N685        N  0.36442389  0.89342245  0.54098631    -0.01800
C686        C  0.34940379  0.88152799  0.55515026     0.00800
C687        C  0.35261821  0.88807950  0.57827565    -0.22100
C688        C  0.37030096  0.90453609  0.57843006    -0.22300
C689        C  0.37730239  0.90743057  0.55538460     0.00700
H690        H  0.34353347  0.88116231  0.59342890     0.14500
H691        H  0.37745896  0.91325170  0.59370061     0.14500
N692        N  0.38296894  0.71494318  0.38847971    -0.01800
C693        C  0.37361258  0.70256113  0.40667410     0.00800
C694        C  0.38190633  0.67970438  0.40614360    -0.22100
C695        C  0.39631566  0.67781776  0.38688325    -0.22300
C696        C  0.39676784  0.69964634  0.37631669     0.00700
H697        H  0.37738689  0.66566616  0.41809286     0.14500
H698        H  0.40530558  0.66211480  0.38106681     0.14500
N699        N  0.36255340  0.86815546  0.21005136    -0.01800
C700        C  0.37452238  0.85265255  0.19636153     0.00800
C701        C  0.36835566  0.85593025  0.17306485    -0.22100
C702        C  0.35262093  0.87429693  0.17237967    -0.22300
C703        C  0.34941303  0.88155254  0.19529116     0.00700
H704        H  0.37499778  0.84634469  0.15807738     0.14500
H705        H  0.34458366  0.88168606  0.15682274     0.14500
N706        N  0.38459295  0.04490158  0.36101752    -0.01800
C707        C  0.39856638  0.05873839  0.37466330     0.00800
C708        C  0.39576506  0.08201852  0.36826778    -0.22100
C709        C  0.37974400  0.08252330  0.35016350    -0.22300
C710        C  0.37297849  0.05958060  0.34610822     0.00700
H711        H  0.40421625  0.09709702  0.37609647     0.14500
H712        H  0.37337785  0.09802381  0.34120969     0.14500
Zn713      Zn  0.22650853  0.02283629  0.23089668     1.49700
Zn714      Zn  0.27999201  0.00670077  0.23842899     1.49400
Zn715      Zn  0.24584797  0.01122132  0.28295272     1.49100
Zn716      Zn  0.23858290  0.97026444  0.24508366     1.49500
O717        O  0.24774666  0.00296439  0.24952070    -1.82400
O718        O  0.24441793  0.04139505  0.20666182    -0.73100
O719        O  0.30057720  0.02169024  0.26323418    -0.72900
O720        O  0.22219502  0.03788164  0.28759450    -0.72400
O721        O  0.28073281  0.02739023  0.20980135    -0.73100
O722        O  0.20821905  0.04492610  0.25170418    -0.72700
O723        O  0.27780807  0.02262554  0.29475533    -0.73300
O724        O  0.22594301  0.95665588  0.27479088    -0.72600
O725        O  0.29431667  0.97535640  0.22966089    -0.73400
O726        O  0.23476607  0.98285944  0.30227357    -0.72800
O727        O  0.26556657  0.94986559  0.23547973    -0.73300
O728        O  0.21466929  0.96692179  0.21955380    -0.73200
O729        O  0.20377723  0.00359467  0.21182714    -0.73000
C730        C  0.26561258  0.04040888  0.19966160     0.78800
C731        C  0.29755619  0.02650253  0.28485954     0.79300
C732        C  0.20860574  0.04904903  0.27367229     0.78300
C733        C  0.22670277  0.96280866  0.29624366     0.78700
C734        C  0.28651171  0.95439973  0.22941721     0.79800
C735        C  0.20217060  0.98161106  0.20831407     0.78800
Zn736      Zn  0.14225461  0.10905868  0.14154729     1.49700
Zn737      Zn  0.10166348  0.10678253  0.10336876     1.49400
Zn738      Zn  0.10155888  0.14700150  0.14279154     1.49100
Zn739      Zn  0.13923297  0.14766876  0.10106841     1.49500
O740        O  0.12112716  0.12770778  0.12220272    -1.82400
O741        O  0.13617511  0.07469029  0.13770156    -0.73100
O742        O  0.06777373  0.11398508  0.10824870    -0.72900
O743        O  0.10772006  0.14018737  0.17703355    -0.72400
O744        O  0.10723332  0.07296262  0.11156714    -0.73100
O745        O  0.13890248  0.11666255  0.17566983    -0.72700
O746        O  0.06749277  0.14147289  0.13602797    -0.73300
O747        O  0.13392657  0.18161150  0.10833931    -0.72600
O748        O  0.10780653  0.11073197  0.06886127    -0.73400
O749        O  0.10796231  0.18145905  0.13746974    -0.72800
O750        O  0.13053027  0.14237157  0.06726269    -0.73300
O751        O  0.17388689  0.14075236  0.10391159    -0.73200
O752        O  0.17557471  0.11422977  0.13247154    -0.73000
C753        C  0.12182217  0.06301162  0.12525410     0.78800
C754        C  0.05686452  0.12813111  0.12162288     0.79300
C755        C  0.12390679  0.12854175  0.18715167     0.78300
C756        C  0.12113691  0.19239654  0.12312674     0.78700
C757        C  0.11886029  0.12622122  0.05723313     0.79800
C758        C  0.18553500  0.12701583  0.11718609     0.78800
N759        N  0.12521432  0.12258800  0.95664643    -0.01800
C760        C  0.11273942  0.10854115  0.94199421     0.00800
C761        C  0.11951331  0.11231633  0.91902260    -0.22100
C762        C  0.13666479  0.12939169  0.91959763    -0.22300
C763        C  0.13984399  0.13541425  0.94290643     0.00700
H764        H  0.11262202  0.10373192  0.90355445     0.14500
H765        H  0.14583798  0.13663252  0.90464471     0.14500
N766        N  0.12431066  0.96201768  0.12456884    -0.01800
C767        C  0.13795745  0.94735973  0.13751289     0.00800
C768        C  0.13411981  0.92430972  0.13103146    -0.22100
C769        C  0.11742061  0.92478010  0.11353520    -0.22300
C770        C  0.11164738  0.94810776  0.10994492     0.00700
H771        H  0.14235665  0.90884418  0.13841250     0.14500
H772        H  0.11013932  0.90973226  0.10452625     0.14500
N773        N  0.95687003  0.13741992  0.11447864    -0.01800
C774        C  0.94344265  0.15400861  0.12515841     0.00800
C775        C  0.92029963  0.15146770  0.11817811    -0.22100
C776        C  0.91957252  0.13265279  0.10290815    -0.22300
C777        C  0.94228421  0.12427602  0.10099666     0.00700
H778        H  0.90547904  0.16190939  0.12385027     0.14500
H779        H  0.90413557  0.12574190  0.09429019     0.14500
N780        N  0.13084303  0.13397030  0.28742793    -0.01800
C781        C  0.11895472  0.15067026  0.29953476     0.00800
C782        C  0.12512936  0.14986633  0.32299573    -0.22100
C783        C  0.14158672  0.13218472  0.32529572    -0.22300
C784        C  0.14476496  0.12270705  0.30318115     0.00700
H785        H  0.11827793  0.16081330  0.33691858     0.14500
H786        H  0.15021317  0.12677826  0.34133188     0.14500
N787        N  0.13077254  0.29296223  0.12337600    -0.01800
C788        C  0.11877057  0.30907533  0.13629222     0.00800
C789        C  0.12718089  0.33134777  0.13176394    -0.22100
C790        C  0.14487446  0.32888400  0.11546957    -0.22300
C791        C  0.14673809  0.30517288  0.11046030     0.00700
H792        H  0.12095326  0.34763772  0.13930249     0.14500
H793        H  0.15507244  0.34293794  0.10781463     0.14500
N794        N  0.28512941  0.11279221  0.10828471    -0.01800
C795        C  0.29686315  0.09497897  0.11912305     0.00800
C796        C  0.31967194  0.09386909  0.11086298    -0.22100
C797        C  0.32220802  0.11171820  0.09484014    -0.22300
C798        C  0.30079837  0.12307320  0.09350940     0.00700
H799        H  0.33329190  0.08188758  0.11656027     0.14500
H800        H  0.33809293  0.11619647  0.08548625     0.14500
Zn801      Zn  0.85756424  0.39033406  0.39338627     1.49700
Zn802      Zn  0.86330903  0.35109716  0.35415898     1.49400
Zn803      Zn  0.89838116  0.39479827  0.35586250     1.49100
Zn804      Zn  0.90115622  0.35459188  0.39477957     1.49500
O805        O  0.88014091  0.37271735  0.37456998    -1.82400
O806        O  0.82408295  0.38254939  0.38457573    -0.73100
O807        O  0.87058488  0.35735658  0.32047127    -0.72900
O808        O  0.89089774  0.42832389  0.36387872    -0.72400
O809        O  0.82859196  0.35573990  0.35702079    -0.73100
O810        O  0.86231647  0.42535143  0.38999680    -0.72700
O811        O  0.89254902  0.38958402  0.32133182    -0.73300
O812        O  0.93499837  0.36366319  0.38941245    -0.72600
O813        O  0.87061088  0.31720257  0.36167291    -0.73400
O814        O  0.93268752  0.39140454  0.36241836    -0.72800
O815        O  0.89765525  0.31976640  0.38954200    -0.73300
O816        O  0.89311655  0.35973812  0.42865077    -0.73200
O817        O  0.86185250  0.38248260  0.42736481    -0.73000
C818        C  0.81528351  0.36848138  0.36960550     0.78800
C819        C  0.88143234  0.37380417  0.31003349     0.79300
C820        C  0.87634745  0.43782436  0.37788060     0.78300
C821        C  0.94486637  0.37873643  0.37618054     0.78700
C822        C  0.88464191  0.30750501  0.37615854     0.79800
C823        C  0.87661383  0.37052535  0.43912202     0.78800
N824        N  0.87720657  0.38239923  0.20935758    -0.01800
C825        C  0.86439697  0.39797260  0.19656425     0.00800
C826        C  0.86923301  0.39517471  0.17292067    -0.22100
C827        C  0.88537908  0.37723619  0.17111269    -0.22300
C828        C  0.88994904  0.36969393  0.19370034     0.00700
H829        H  0.86160915  0.40493857  0.15850442     0.14500
H830        H  0.89285718  0.37034747  0.15507310     0.14500
N831        N  0.88885688  0.20598934  0.37769523    -0.01800
C832        C  0.87726631  0.19085787  0.39211532     0.00800
C833        C  0.88386047  0.16800051  0.38710618    -0.22100
C834        C  0.89978361  0.16904902  0.36895617    -0.22300
C835        C  0.90251689  0.19250631  0.36346840     0.00700
H836        H  0.87751810  0.15221610  0.39552940     0.14500
H837        H  0.90816641  0.15429110  0.36042963     0.14500
N838        N  0.04619208  0.37927472  0.37389901    -0.01800
C839        C  0.05882416  0.36506282  0.35949650     0.00800
C840        C  0.08255388  0.36862701  0.36334610    -0.22100
C841        C  0.08445377  0.38553369  0.38066995    -0.22300
C842        C  0.06182780  0.39183992  0.38680394     0.00700
H843        H  0.09692468  0.35997781  0.35443807     0.14500
H844        H  0.10056173  0.39264015  0.38776676     0.14500
N845        N  0.87295243  0.37315077  0.54069335    -0.01800
C846        C  0.85963558  0.36024562  0.55562990     0.00800
C847        C  0.86401721  0.36690347  0.57852526    -0.22100
C848        C  0.88074895  0.38439863  0.57758606    -0.22300
C849        C  0.88598990  0.38791009  0.55412711     0.00700
H850        H  0.85620602  0.35957323  0.59419472     0.14500
H851        H  0.88852867  0.39333542  0.59242467     0.14500
N852        N  0.86868173  0.53878755  0.38665710    -0.01800
C853        C  0.85235085  0.55212364  0.37539365     0.00800
C854        C  0.85439698  0.57535587  0.38219812    -0.22100
C855        C  0.87267107  0.57643705  0.39794584    -0.22300
C856        C  0.88111324  0.55382076  0.40036677     0.00700
H857        H  0.84390474  0.58999972  0.37612042     0.14500
H858        H  0.87921422  0.59203856  0.40656651     0.14500
N859        N  0.71406353  0.35832667  0.36449676    -0.01800
C860        C  0.69855441  0.36948588  0.35025637     0.00800
C861        C  0.67624886  0.36048800  0.35342376    -0.22100
C862        C  0.67810295  0.34318892  0.37022603    -0.22300
C863        C  0.70145444  0.34228942  0.37671573     0.00700
H864        H  0.66029928  0.36625476  0.34484021     0.14500
H865        H  0.66391706  0.33278536  0.37732283     0.14500
Zn866      Zn  0.99617628  0.22263527  0.24914825     1.49700
Zn867      Zn  0.03423715  0.26424596  0.25189286     1.49400
Zn868      Zn  0.99544631  0.26465498  0.21191743     1.49100
Zn869      Zn  0.98041808  0.27449186  0.26567094     1.49500
O870        O  0.00145908  0.25653742  0.24480112    -1.82400
O871        O  0.02636984  0.20614815  0.25763754    -0.73100
O872        O  0.05151084  0.27609865  0.22316849    -0.72900
O873        O  0.98465383  0.23638936  0.19345854    -0.72400
O874        O  0.05151660  0.23535831  0.26308567    -0.73100
O875        O  0.98340713  0.20738625  0.21946876    -0.72700
O876        O  0.02414740  0.27796795  0.19585952    -0.73300
O877        O  0.95766784  0.29438302  0.24633710    -0.72600
O878        O  0.03640600  0.28947563  0.27691663    -0.73400
O879        O  0.96993646  0.28884723  0.20964221    -0.72800
O880        O  0.99932649  0.29642086  0.28704421    -0.73300
O881        O  0.96176353  0.25244813  0.28671428    -0.73200
O882        O  0.97362265  0.21671762  0.27608591    -0.73000
C883        C  0.04660902  0.21353526  0.26353879     0.78800
C884        C  0.04530633  0.28113532  0.20228320     0.79300
C885        C  0.98027757  0.21509899  0.19868179     0.78300
C886        C  0.95634581  0.29868164  0.22438713     0.78700
C887        C  0.02127230  0.30036386  0.28929933     0.79800
C888        C  0.96135942  0.23018441  0.28909223     0.78800
C889        C  0.04885743  0.34857995  0.34148626    -0.03600
C890        C  0.03458559  0.32944421  0.34824564    -0.00800
C891        C  0.02468120  0.31440643  0.33113263     0.04200
C892        C  0.02969164  0.31769089  0.30708345    -0.03600
C893        C  0.04425735  0.33656003  0.30029641    -0.00700
C894        C  0.05399340  0.35173575  0.31737474     0.04200
C895        C  0.03180263  0.32369059  0.37283447     0.38900
C896        C  0.04860790  0.34086220  0.27558696     0.38900
C897        C  0.06937450  0.37061939  0.31001601     0.37300
C898        C  0.01011717  0.29484637  0.33841319     0.37300
N899        N  0.08164173  0.38567787  0.30413350    -0.37500
N900        N  0.99847730  0.27926766  0.34421606    -0.37500
N901        N  0.05189958  0.34444980  0.25587408    -0.37000
N902        N  0.02969655  0.31823272  0.39227125    -0.37000
C903        C  0.94633680  0.21967701  0.30764927    -0.03600
C904        C  0.95656859  0.20814381  0.32706646    -0.00800
C905        C  0.94220683  0.19803566  0.34454947     0.04200
C906        C  0.91758493  0.20126847  0.34389342    -0.03600
C907        C  0.90735394  0.21205125  0.32405573    -0.00700
C908        C  0.92167739  0.22076092  0.30582848     0.04200
C909        C  0.98188820  0.20742528  0.32954381     0.38900
C910        C  0.88205531  0.21261982  0.32143407     0.38900
C911        C  0.91097217  0.22934007  0.28446079     0.37300
C912        C  0.95282169  0.18422084  0.36313693     0.37300
N913        N  0.90215650  0.23550381  0.26725986    -0.37500
N914        N  0.96125588  0.17308719  0.37790514    -0.37500
N915        N  0.86192466  0.21294049  0.31878677    -0.37000
N916        N  0.00207225  0.20712913  0.33178924    -0.37000
C917        C  0.90666379  0.35046049  0.19981273    -0.03600
C918        C  0.89864377  0.32997900  0.21116925    -0.00800
C919        C  0.91481070  0.31280648  0.21881785     0.04200
C920        C  0.93911418  0.31617751  0.21560308    -0.03600
C921        C  0.94701885  0.33599234  0.20301303    -0.00700
C922        C  0.93079607  0.35268755  0.19452159     0.04200
C923        C  0.87368255  0.32570410  0.21354191     0.38900
C924        C  0.97196718  0.33958514  0.19939599     0.38900
C925        C  0.93908595  0.37239429  0.18072341     0.37300
C926        C  0.90624148  0.29098086  0.22848742     0.37300
N927        N  0.94572712  0.38810863  0.16972408    -0.37500
N928        N  0.89891008  0.27349498  0.23563685    -0.37500
N929        N  0.99188309  0.34240878  0.19664267    -0.37000
N930        N  0.85385034  0.32174640  0.21526531    -0.37000
C931        C  0.87582504  0.46396289  0.38031154    -0.03600
C932        C  0.87133015  0.47437203  0.40242382    -0.00800
C933        C  0.86887634  0.49893013  0.40446438     0.04200
C934        C  0.87204052  0.51360524  0.38471580    -0.03600
C935        C  0.87808473  0.50336269  0.36297945    -0.00700
C936        C  0.87972633  0.47872914  0.36067086     0.04200
C937        C  0.86996703  0.45996128  0.42342151     0.38900
C938        C  0.88306297  0.51814827  0.34292333     0.38900
C939        C  0.88506002  0.46876812  0.33783619     0.37300
C940        C  0.86147796  0.50871673  0.42671903     0.37300
N941        N  0.88944952  0.46092983  0.31961711    -0.37500
N942        N  0.85501767  0.51565040  0.44467510    -0.37500
N943        N  0.88735901  0.52956479  0.32669591    -0.37000
N944        N  0.86904044  0.44856009  0.44020994    -0.37000
C945        C  0.87470793  0.36948959  0.46549210    -0.03600
C946        C  0.85536222  0.38002164  0.47736799    -0.00800
C947        C  0.85447101  0.38027272  0.50208931     0.04200
C948        C  0.87324698  0.37132529  0.51543204    -0.03600
C949        C  0.89215095  0.36037281  0.50396923    -0.00700
C950        C  0.89238129  0.35834967  0.47930012     0.04200
C951        C  0.83593698  0.39059384  0.46460431     0.38900
C952        C  0.91154430  0.35104979  0.51753400     0.38900
C953        C  0.91052374  0.34392632  0.46867341     0.37300
C954        C  0.83436760  0.39065768  0.51366640     0.37300
N955        N  0.92478163  0.33199381  0.46045693    -0.37500
N956        N  0.81805469  0.39949455  0.52193076    -0.37500
N957        N  0.92742253  0.34349280  0.52772212    -0.37000
N958        N  0.82041430  0.39915562  0.45463540    -0.37000
C959        C  0.88572203  0.28134295  0.37748040    -0.03600
C960        C  0.90734043  0.26958638  0.38097584    -0.00800
C961        C  0.90807294  0.24485429  0.38213822     0.04200
C962        C  0.88767130  0.23143327  0.37779598    -0.03600
C963        C  0.86615127  0.24318750  0.37407922    -0.00700
C964        C  0.86498779  0.26787994  0.37536058     0.04200
C965        C  0.92901071  0.28276084  0.38327524     0.38900
C966        C  0.84517670  0.23012710  0.36821014     0.38900
C967        C  0.84220319  0.27918310  0.37654503     0.37300
C968        C  0.92961177  0.23345191  0.38939946     0.37300
N969        N  0.82395866  0.28794311  0.37828355    -0.37500
N970        N  0.94692701  0.22507349  0.39595654    -0.37500
N971        N  0.82819194  0.22022719  0.36315812    -0.37000
N972        N  0.94633934  0.29317129  0.38512180    -0.37000
C973        C  0.88040723  0.37503945  0.28406957    -0.03600
C974        C  0.85873895  0.37244403  0.27222324    -0.00800
C975        C  0.85774930  0.37418696  0.24755536     0.04200
C976        C  0.87805294  0.38017367  0.23466077    -0.03600
C977        C  0.89947691  0.38350481  0.24671428    -0.00700
C978        C  0.90088064  0.37966092  0.27104224     0.04200
C979        C  0.83728018  0.36854124  0.28539381     0.38900
C980        C  0.91986557  0.39248483  0.23455507     0.38900
C981        C  0.92367969  0.37902624  0.28233295     0.37300
C982        C  0.83589298  0.36918250  0.23560181     0.37300
N983        N  0.94201504  0.37786645  0.29097631    -0.37500
N984        N  0.81822932  0.36480811  0.22658565    -0.37500
N985        N  0.93631185  0.40033200  0.22564260    -0.37000
N986        N  0.82019255  0.36551349  0.29592941    -0.37000
C987        C  0.78906196  0.36653532  0.36703456    -0.03600
C988        C  0.77868935  0.34608856  0.35716437    -0.00800
C989        C  0.75409311  0.34350847  0.35662527     0.04200
C990        C  0.73929609  0.36138768  0.36518393    -0.03600
C991        C  0.74935859  0.38232750  0.37369808    -0.00700
C992        C  0.77400886  0.38498815  0.37455973     0.04200
C993        C  0.79291260  0.32766902  0.34673753     0.38900
C994        C  0.73446911  0.40122909  0.38191419     0.38900
C995        C  0.78359228  0.40729867  0.38228602     0.37300
C996        C  0.74404923  0.32274230  0.34594970     0.37300
N997        N  0.79111569  0.42515759  0.38836188    -0.37500
N998        N  0.73683517  0.30616701  0.33672051    -0.37500
N999        N  0.72318272  0.41671083  0.38869502    -0.37000
N1000       N  0.80392346  0.31308209  0.33784592    -0.37000
C1001       C  0.97108075  0.38129210  0.37654076    -0.03600
C1002       C  0.98428623  0.37393222  0.39637287    -0.00800
C1003       C  0.00901227  0.37376038  0.39563361     0.04200
C1004       C  0.02092493  0.38082299  0.37516469    -0.03600
C1005       C  0.00802379  0.38968818  0.35604187    -0.00700
C1006       C  0.98333693  0.39069738  0.35695774     0.04200
C1007       C  0.97270880  0.36748477  0.41810884     0.38900
C1008       C  0.02013712  0.39838211  0.33545994     0.38900
C1009       C  0.97103724  0.40240888  0.33796396     0.37300
C1010       C  0.02210849  0.36533862  0.41576219     0.37300
N1011       N  0.96160733  0.41247791  0.32303985    -0.37500
N1012       N  0.03205122  0.35826403  0.43201129    -0.37500
N1013       N  0.02923909  0.40569091  0.31885966    -0.37000
N1014       N  0.96365073  0.36246219  0.43556216    -0.37000
C1015       C  0.06319229  0.29046926  0.18509964    -0.03600
C1016       C  0.08422638  0.30126933  0.19315655    -0.00800
C1017       C  0.10163463  0.30853797  0.17707177     0.04200
C1018       C  0.09912033  0.30388274  0.15288320    -0.03600
C1019       C  0.07761936  0.29499296  0.14455210    -0.00700
C1020       C  0.05961527  0.28867921  0.16041175     0.04200
C1021       C  0.08812272  0.30554047  0.21796758     0.38900
C1022       C  0.07330617  0.29381692  0.11949253     0.38900
C1023       C  0.03734226  0.28088473  0.15085008     0.37300
C1024       C  0.12231470  0.32078428  0.18552210     0.37300
N1025       N  0.01950760  0.27518506  0.14298113    -0.37500
N1026       N  0.13878064  0.33057624  0.19224266    -0.37500
N1027       N  0.06927909  0.29314246  0.09960094    -0.37000
N1028       N  0.09148751  0.30889713  0.23771820    -0.37000
C1029       C  0.10048990  0.16643238  0.28962057    -0.03600
C1030       C  0.10642882  0.18542654  0.27485652    -0.00800
C1031       C  0.08873154  0.19997246  0.26534887     0.04200
C1032       C  0.06491592  0.19646487  0.27145012    -0.03600
C1033       C  0.05898193  0.17730735  0.28614927    -0.00700
C1034       C  0.07671673  0.16268865  0.29548363     0.04200
C1035       C  0.13075339  0.19152030  0.27087317     0.38900
C1036       C  0.03467870  0.17259604  0.29204953     0.38900
C1037       C  0.07048573  0.14408885  0.31172008     0.37300
C1038       C  0.09511880  0.21819122  0.24869462     0.37300
N1039       N  0.06552800  0.12931837  0.32473740    -0.37500
N1040       N  0.10017841  0.23261961  0.23532898    -0.37500
N1041       N  0.01531741  0.16849299  0.29655725    -0.37000
N1042       N  0.14984854  0.19755711  0.26762914    -0.37000
C1043       C  0.95181924  0.17090048  0.14352455    -0.03600
C1044       C  0.97040930  0.18657864  0.13884319    -0.00800
C1045       C  0.98066427  0.19969838  0.15718074     0.04200
C1046       C  0.97097110  0.19919487  0.18002136    -0.03600
C1047       C  0.95149921  0.18448660  0.18446454    -0.00700
C1048       C  0.94203697  0.17039053  0.16636897     0.04200
C1049       C  0.97792859  0.19079242  0.11493720     0.38900
C1050       C  0.94092887  0.18395126  0.20761697     0.38900
C1051       C  0.92240847  0.15503516  0.17150297     0.37300
C1052       C  0.00211724  0.21261910  0.15272171     0.37300
N1053       N  0.90671715  0.14283655  0.17558842    -0.37500
N1054       N  0.01950668  0.22244729  0.14917876    -0.37500
N1055       N  0.93252723  0.18345169  0.22609393    -0.37000
N1056       N  0.98392699  0.19512488  0.09603722    -0.37000
C1057       C  0.12720772  0.26781813  0.12359431    -0.03600
C1058       C  0.12056604  0.25595486  0.10290494    -0.00800
C1059       C  0.11870595  0.23132187  0.10275197     0.04200
C1060       C  0.12192148  0.21837861  0.12363360    -0.03600
C1061       C  0.12716349  0.23029416  0.14467935    -0.00700
C1062       C  0.13059247  0.25479672  0.14448639     0.04200
C1063       C  0.11492649  0.26896385  0.08180423     0.38900
C1064       C  0.13018666  0.21723785  0.16636913     0.38900
C1065       C  0.13950484  0.26608273  0.16541970     0.37300
C1066       C  0.11333496  0.21937428  0.08097096     0.37300
N1067       N  0.14723265  0.27422985  0.18233543    -0.37500
N1068       N  0.10934916  0.21010650  0.06337674    -0.37500
N1069       N  0.13245984  0.20687583  0.18369686    -0.37000
N1070       N  0.10993012  0.27871689  0.06469808    -0.37000
C1071       C  0.12263223  0.03711708  0.12618903    -0.03600
C1072       C  0.14361749  0.02525588  0.12056168    -0.00800
C1073       C  0.14420620  0.00054247  0.12017286     0.04200
C1074       C  0.12387347  0.98743512  0.12572155    -0.03600
C1075       C  0.10303301  0.99946254  0.13191169    -0.00700
C1076       C  0.10239879  0.02420367  0.13203310     0.04200
C1077       C  0.16438645  0.03853060  0.11407546     0.38900
C1078       C  0.08230567  0.98655273  0.13880477     0.38900
C1079       C  0.08108545  0.03643292  0.13883190     0.37300
C1080       C  0.16541439  0.98888921  0.11240088     0.37300
N1081       N  0.06414519  0.04623354  0.14431400    -0.37500
N1082       N  0.18258025  0.98043433  0.10558432    -0.37500
N1083       N  0.06551213  0.97678378  0.14464748    -0.37000
N1084       N  0.18088671  0.04915043  0.10889269    -0.37000
C1085       C  0.03112307  0.12969036  0.11975956    -0.03600
C1086       C  0.02070184  0.13507123  0.09794861    -0.00800
C1087       C  0.99625825  0.13802198  0.09634382     0.04200
C1088       C  0.98198105  0.13469189  0.11631349    -0.03600
C1089       C  0.99243416  0.12885646  0.13801510    -0.00700
C1090       C  0.01695852  0.12661875  0.13977935     0.04200
C1091       C  0.03519715  0.13844524  0.07727077     0.38900
C1092       C  0.97802597  0.12454394  0.15848202     0.38900
C1093       C  0.02752711  0.12049932  0.16210758     0.37300
C1094       C  0.98611678  0.14621465  0.07450258     0.37300
N1095       N  0.03576623  0.11563092  0.18001504    -0.37500
N1096       N  0.97868733  0.15335841  0.05699404    -0.37500
N1097       N  0.96690504  0.12077063  0.17503483    -0.37000
N1098       N  0.04671060  0.14101485  0.06075490    -0.37000
C1099       C  0.12581805  0.12915817  0.21296160    -0.03600
C1100       C  0.14523089  0.14018628  0.22351499    -0.00800
C1101       C  0.14796304  0.13967803  0.24804729     0.04200
C1102       C  0.13000708  0.13048626  0.26235471    -0.03600
C1103       C  0.11024963  0.11993035  0.25175306    -0.00700
C1104       C  0.10865119  0.11843537  0.22710250     0.04200
C1105       C  0.16142143  0.15367029  0.20927732     0.38900
C1106       C  0.09147793  0.11058537  0.26600580     0.38900
C1107       C  0.08973057  0.10530866  0.21630760     0.37300
C1108       C  0.16893355  0.14951416  0.25839679     0.37300
N1109       N  0.07485929  0.09442725  0.20780748    -0.37500
N1110       N  0.18593737  0.15775156  0.26580256    -0.37500
N1111       N  0.07602068  0.10292347  0.27667817    -0.37000
N1112       N  0.17394330  0.16506073  0.19810369    -0.37000
C1113       C  0.11916287  0.12478532  0.03135550    -0.03600
C1114       C  0.10994077  0.14317316  0.01760478    -0.00800
C1115       C  0.11279585  0.14292213  0.99303888     0.04200
C1116       C  0.12328251  0.12340865  0.98191675    -0.03600
C1117       C  0.13109206  0.10429187  0.99568366    -0.00700
C1118       C  0.12961066  0.10525720  0.02033531     0.04200
C1119       C  0.09595021  0.16142580  0.02849110     0.38900
C1120       C  0.14127881  0.08377256  0.98472899     0.38900
C1121       C  0.13939084  0.08638633  0.03444351     0.37300
C1122       C  0.10435955  0.16258165  0.97932683     0.37300
N1123       N  0.14723404  0.07143953  0.04577177    -0.37500
N1124       N  0.09727531  0.17859779  0.96901751    -0.37500
N1125       N  0.14973180  0.06710331  0.97676375    -0.37000
N1126       N  0.08405652  0.17566784  0.03675385    -0.37000
C1127       C  0.21132280  0.12527717  0.11456375    -0.03600
C1128       C  0.22602844  0.12703203  0.13443831    -0.00800
C1129       C  0.25048712  0.12434782  0.13215105     0.04200
C1130       C  0.26037370  0.11824222  0.11025890    -0.03600
C1131       C  0.24551610  0.11593028  0.09047466    -0.00700
C1132       C  0.22120538  0.12008370  0.09247129     0.04200
C1133       C  0.21604117  0.13111937  0.15747362     0.38900
C1134       C  0.25470450  0.10691975  0.06855956     0.38900
C1135       C  0.20615291  0.11722503  0.07207606     0.37300
C1136       C  0.26530425  0.12803114  0.15247754     0.37300
N1137       N  0.19416673  0.11490785  0.05583121    -0.37500
N1138       N  0.27660147  0.13130270  0.16904082    -0.37500
N1139       N  0.26135405  0.09923161  0.05098452    -0.37000
N1140       N  0.20830483  0.13388462  0.17602259    -0.37000
C1141       C  0.15433504  0.95483256  0.15640259    -0.03600
C1142       C  0.14570773  0.96677148  0.17631173    -0.00800
C1143       C  0.16138065  0.97621791  0.19291218     0.04200
C1144       C  0.18572416  0.97275962  0.19033794    -0.03600
C1145       C  0.19437161  0.95999377  0.17093692    -0.00700
C1146       C  0.17868599  0.95054238  0.15431565     0.04200
C1147       C  0.12072781  0.96752459  0.18094744     0.38900
C1148       C  0.21948969  0.95786255  0.16728145     0.38900
C1149       C  0.18770523  0.93666220  0.13494985     0.37300
C1150       C  0.15235999  0.98919361  0.21284374     0.37300
N1151       N  0.19495199  0.92561502  0.11951636    -0.37500
N1152       N  0.14496915  0.99965146  0.22859288    -0.37500
N1153       N  0.23951044  0.95652648  0.16414031    -0.37000
N1154       N  0.10093856  0.96776169  0.18544939    -0.37000
C1155       C  0.19255947  0.06727105  0.28314518    -0.03600
C1156       C  0.16829550  0.06271234  0.28493718    -0.00800
C1157       C  0.15270757  0.08059054  0.29219001     0.04200
C1158       C  0.16129436  0.10315479  0.29766708    -0.03600
C1159       C  0.18579782  0.10683482  0.29844450    -0.00700
C1160       C  0.20130974  0.08932018  0.29021519     0.04200
C1161       C  0.15946917  0.03936363  0.28006369     0.38900
C1162       C  0.19511357  0.12831078  0.30840065     0.38900
C1163       C  0.22612534  0.09439380  0.28802851     0.37300
C1164       C  0.12824049  0.07504297  0.29618085     0.37300
N1165       N  0.24585163  0.09869154  0.28594550    -0.37500
N1166       N  0.10895972  0.06998325  0.29996737    -0.37500
N1167       N  0.20253291  0.14532628  0.31663391    -0.37000
N1168       N  0.15239973  0.02067573  0.27650968    -0.37000
C1169       C  0.28835222  0.08085240  0.13957274    -0.03600
C1170       C  0.26820505  0.06645722  0.13798448    -0.00800
C1171       C  0.26022080  0.05393409  0.15786071     0.04200
C1172       C  0.27301647  0.05469544  0.17914073    -0.03600
C1173       C  0.29348806  0.06852538  0.18054589    -0.00700
C1174       C  0.30091684  0.08176280  0.16104740     0.04200
C1175       C  0.25636058  0.06327488  0.11570158     0.38900
C1176       C  0.30667686  0.06967664  0.20234381     0.38900
C1177       C  0.32107488  0.09713034  0.16354005     0.37300
C1178       C  0.23931354  0.03949047  0.15608064     0.37300
N1179       N  0.33706007  0.10946387  0.16559450    -0.37500
N1180       N  0.22261006  0.02803703  0.15468558    -0.37500
N1181       N  0.31721911  0.07047931  0.21969612    -0.37000
N1182       N  0.24666841  0.06016303  0.09812318    -0.37000
C1183       C  0.35424835  0.05267068  0.32896029    -0.03600
C1184       C  0.33123149  0.06171600  0.33134165    -0.00800
C1185       C  0.31282690  0.05320942  0.31705914     0.04200
C1186       C  0.31742702  0.03677668  0.29893972    -0.03600
C1187       C  0.34116086  0.03043699  0.29451158    -0.00700
C1188       C  0.35924517  0.03755961  0.31000261     0.04200
C1189       C  0.32620573  0.07936367  0.34903904     0.38900
C1190       C  0.34747990  0.01758372  0.27349671     0.38900
C1191       C  0.38322437  0.03015689  0.30569278     0.37300
C1192       C  0.28925845  0.06217206  0.32068466     0.37300
N1193       N  0.40227098  0.02416236  0.30195053    -0.37500
N1194       N  0.27050688  0.06934575  0.32379304    -0.37500
N1195       N  0.35297277  0.00818365  0.25635581    -0.37000
N1196       N  0.32219919  0.09347015  0.36309865    -0.37000
C1197       C  0.33339115  0.90095624  0.20270569    -0.03600
C1198       C  0.30924483  0.90023659  0.19695642    -0.00800
C1199       C  0.29367882  0.91723358  0.20613592     0.04200
C1200       C  0.30211072  0.93502356  0.22132079    -0.03600
C1201       C  0.32604737  0.93508240  0.22759406    -0.00700
C1202       C  0.34181561  0.91941285  0.21689296     0.04200
C1203       C  0.30027353  0.88197720  0.18163476     0.38900
C1204       C  0.33411403  0.94945236  0.24695126     0.38900
C1205       C  0.36673306  0.92396760  0.21879570     0.37300
C1206       C  0.26894032  0.91588566  0.20027513     0.37300
N1207       N  0.38641926  0.92874003  0.22006115    -0.37500
N1208       N  0.24918451  0.91437102  0.19581566    -0.37500
N1209       N  0.34042459  0.96002151  0.26308316    -0.37000
N1210       N  0.29310060  0.86750177  0.16932953    -0.37000
C1211       C  0.20019604  0.91295448  0.34745183    -0.03600
C1212       C  0.19532876  0.93718177  0.34988928    -0.00800
C1213       C  0.20433429  0.95355536  0.33356236     0.04200
C1214       C  0.21806221  0.94584540  0.31434265    -0.03600
C1215       C  0.22235470  0.92144513  0.31163211    -0.00700
C1216       C  0.21288421  0.90514368  0.32767966     0.04200
C1217       C  0.18067080  0.94529854  0.36905560     0.38900
C1218       C  0.23689885  0.91287965  0.29250988     0.38900
C1219       C  0.21445600  0.88029649  0.32244929     0.37300
C1220       C  0.19869998  0.97825717  0.33620391     0.37300
N1221       N  0.21546359  0.86068514  0.31726629    -0.37500
N1222       N  0.19419381  0.99796063  0.33833500    -0.37500
N1223       N  0.24847847  0.90599586  0.27730245    -0.37000
N1224       N  0.16895257  0.95172952  0.38434534    -0.37000
C1225       C  0.46100198  0.87044996  0.37565632    -0.03600
C1226       C  0.47588418  0.87597968  0.35673713    -0.00800
C1227       C  0.50032872  0.87279560  0.35880881     0.04200
C1228       C  0.51005180  0.86379146  0.37977094    -0.03600
C1229       C  0.49496024  0.85730461  0.39830631    -0.00700
C1230       C  0.47052614  0.86025182  0.39608195     0.04200
C1231       C  0.46618561  0.88492322  0.33502139     0.38900
C1232       C  0.50431217  0.84646129  0.41929664     0.38900
C1233       C  0.45500295  0.85080122  0.41388092     0.37300
C1234       C  0.51527057  0.87953592  0.33944794     0.37300
N1235       N  0.44260127  0.84254399  0.42764546    -0.37500
N1236       N  0.52637196  0.88543513  0.32352183    -0.37500
N1237       N  0.51103010  0.83733378  0.43615542    -0.37000
N1238       N  0.45899228  0.89188635  0.31737557    -0.37000
C1239       C  0.36959145  0.88813721  0.46600040    -0.03600
C1240       C  0.34819117  0.89463295  0.47661398    -0.00800
C1241       C  0.34680423  0.89736448  0.50119496     0.04200
C1242       C  0.36618996  0.89159937  0.51563597    -0.03600
C1243       C  0.38745069  0.88464407  0.50491016    -0.00700
C1244       C  0.38949067  0.88429699  0.48023993     0.04200
C1245       C  0.32780278  0.89956935  0.46212597     0.38900
C1246       C  0.40706109  0.87670620  0.51899133     0.38900
C1247       C  0.41225352  0.88029735  0.46967382     0.37300
C1248       C  0.32589402  0.90771448  0.51120768     0.37300
N1249       N  0.43075005  0.87779276  0.46172387    -0.37500
N1250       N  0.30912410  0.91675206  0.51825410    -0.37500
N1251       N  0.42302652  0.86980860  0.52950732    -0.37000
N1252       N  0.31151346  0.90344235  0.45061008    -0.37000
C1253       C  0.23077651  0.88229251  0.38002319    -0.03600
C1254       C  0.24312461  0.86234658  0.37203335    -0.00800
C1255       C  0.26778039  0.86268508  0.37084974     0.04200
C1256       C  0.28035393  0.88198782  0.37978838    -0.03600
C1257       C  0.26809888  0.90148987  0.38885180    -0.00700
C1258       C  0.24339019  0.90202531  0.38809420     0.04200
C1259       C  0.23058662  0.84165142  0.36434030     0.38900
C1260       C  0.28079743  0.92058394  0.39984897     0.38900
C1261       C  0.23105318  0.92265852  0.39636706     0.37300
C1262       C  0.28012801  0.84398505  0.35877963     0.37300
N1263       N  0.22173427  0.93931317  0.40334859    -0.37500
N1264       N  0.28989941  0.82944548  0.34851043    -0.37500
N1265       N  0.29062788  0.93573322  0.40910902    -0.37000
N1266       N  0.22108122  0.82486591  0.35802420    -0.37000
C1267       C  0.37486272  0.78919856  0.37987535    -0.03600
C1268       C  0.39742567  0.77929578  0.38278992    -0.00800
C1269       C  0.40007773  0.75484963  0.38556737     0.04200
C1270       C  0.38035921  0.73987812  0.38417329    -0.03600
C1271       C  0.35794571  0.74975832  0.38019099    -0.00700
C1272       C  0.35513990  0.77432194  0.37871309     0.04200
C1273       C  0.41795659  0.79432104  0.38392553     0.38900
C1274       C  0.33769737  0.73469755  0.37730868     0.38900
C1275       C  0.33189023  0.78416129  0.37570969     0.37300
C1276       C  0.42287919  0.74551370  0.39192723     0.37300
N1277       N  0.31314044  0.79163790  0.37352819    -0.37500
N1278       N  0.44124124  0.73878094  0.39744722    -0.37500
N1279       N  0.32133703  0.72295294  0.37480104    -0.37000
N1280       N  0.43443713  0.80613327  0.38467225    -0.37000
C1281       C  0.37855474  0.97012021  0.36711457    -0.03600
C1282       C  0.40057394  0.98049540  0.36247166    -0.00800
C1283       C  0.40234429  0.00502266  0.35939411     0.04200
C1284       C  0.38240446  0.01957165  0.36227686    -0.03600
C1285       C  0.36050735  0.00914844  0.36735995    -0.00700
C1286       C  0.35847381  0.98457968  0.36903581     0.04200
C1287       C  0.42136894  0.96591355  0.36025689     0.38900
C1288       C  0.34030896  0.02356230  0.37298647     0.38900
C1289       C  0.33563753  0.97435007  0.37359666     0.37300
C1290       C  0.42465256  0.01519861  0.35274275     0.37300
N1291       N  0.31727659  0.96642895  0.37696154    -0.37500
N1292       N  0.44255099  0.02308698  0.34733870    -0.37500
N1293       N  0.32391978  0.03436334  0.37824615    -0.37000
N1294       N  0.43796772  0.95428688  0.35862085    -0.37000
C1295       C  0.36314594  0.87020135  0.23537284    -0.03600
C1296       C  0.34254933  0.86633277  0.24872528    -0.00800
C1297       C  0.34290094  0.86905620  0.27334418     0.04200
C1298       C  0.36362766  0.87643123  0.28464106    -0.03600
C1299       C  0.38367694  0.88162002  0.27117641    -0.00700
C1300       C  0.38383822  0.87744916  0.24685261     0.04200
C1301       C  0.32128890  0.85833586  0.23730688     0.38900
C1302       C  0.40337829  0.89337592  0.28206897     0.38900
C1303       C  0.40513213  0.88157930  0.23363342     0.37300
C1304       C  0.32209302  0.86387484  0.28704502     0.37300
N1305       N  0.42233669  0.88509177  0.22345896    -0.37500
N1306       N  0.30546001  0.85974747  0.29792123    -0.37500
N1307       N  0.41867140  0.90359734  0.29059211    -0.37000
N1308       N  0.30423659  0.85169571  0.22850756    -0.37000
C1309       C  0.82305030  0.21236029  0.44119663    -0.03600
C1310       C  0.84621666  0.22095182  0.44345606    -0.00800
C1311       C  0.86416707  0.21291393  0.42836613     0.04200
C1312       C  0.85894809  0.19732746  0.40984900    -0.03600
C1313       C  0.83596435  0.18799555  0.40810853    -0.00700
C1314       C  0.81814014  0.19548117  0.42366841     0.04200
C1315       C  0.85186544  0.23781746  0.46162394     0.38900
C1316       C  0.83032146  0.17120237  0.38979957     0.38900
C1317       C  0.79444467  0.18659696  0.42082445     0.37300
C1318       C  0.88828131  0.21937158  0.43315358     0.37300
N1319       N  0.77555163  0.17952931  0.41851810    -0.37500
N1320       N  0.90741486  0.22436042  0.43773782    -0.37500
N1321       N  0.82578580  0.15779758  0.37522921    -0.37000
N1322       N  0.85657971  0.25146986  0.47587670    -0.37000
C1323       C  0.81246145  0.30581965  0.53194666    -0.03600
C1324       C  0.80347170  0.32758413  0.53967348    -0.00800
C1325       C  0.81874748  0.34464914  0.54913671     0.04200
C1326       C  0.84328218  0.34103497  0.54863936    -0.03600
C1327       C  0.85205685  0.31871744  0.54229752    -0.00700
C1328       C  0.83661773  0.30105770  0.53436307     0.04200
C1329       C  0.77860890  0.33260864  0.53751584     0.38900
C1330       C  0.87658488  0.31310286  0.54591346     0.38900
C1331       C  0.84532486  0.27752874  0.52997770     0.37300
C1332       C  0.80915221  0.36532545  0.56046265     0.37300
N1333       N  0.85212792  0.25860629  0.52705813    -0.37500
N1334       N  0.80149342  0.38165392  0.56983372    -0.37500
N1335       N  0.89594286  0.30789005  0.54919271    -0.37000
N1336       N  0.75882866  0.33683783  0.53557539    -0.37000
C1337       C  0.72977462  0.29791039  0.43105904    -0.03600
C1338       C  0.72130759  0.28789819  0.41008009    -0.00800
C1339       C  0.71127069  0.30229736  0.39264689     0.04200
C1340       C  0.71088824  0.32692647  0.39556707    -0.03600
C1341       C  0.71865750  0.33681719  0.41692954    -0.00700
C1342       C  0.72825997  0.32234859  0.43456865     0.04200
C1343       C  0.72318850  0.26275690  0.40637203     0.38900
C1344       C  0.71452902  0.36143491  0.42184355     0.38900
C1345       C  0.73555788  0.33244475  0.45679216     0.37300
C1346       C  0.70058988  0.29162730  0.37215896     0.37300
N1347       N  0.74127352  0.34046930  0.47455490    -0.37500
N1348       N  0.69192614  0.28301093  0.35593284    -0.37500
N1349       N  0.71078064  0.38086395  0.42643445    -0.37000
N1350       N  0.72489827  0.24272875  0.40340568    -0.37000
C1351       C  0.69236832  0.27546395  0.55224816    -0.03600
C1352       C  0.69828485  0.29171908  0.57008090    -0.00800
C1353       C  0.68070703  0.30111800  0.58471018     0.04200
C1354       C  0.65712543  0.29384016  0.58219658    -0.03600
C1355       C  0.65101636  0.27844529  0.56381642    -0.00700
C1356       C  0.66854525  0.26906342  0.54907809     0.04200
C1357       C  0.72242526  0.29911253  0.57340906     0.38900
C1358       C  0.62657577  0.27318428  0.55912005     0.38900
C1359       C  0.66194233  0.25230011  0.53105381     0.37300
C1360       C  0.68709696  0.31792544  0.60279424     0.37300
N1361       N  0.65663244  0.23897638  0.51667050    -0.37500
N1362       N  0.69217539  0.33131456  0.61719865    -0.37500
N1363       N  0.60719384  0.26897965  0.55478336    -0.37000
N1364       N  0.74164011  0.30495306  0.57637573    -0.37000
C1365       C  0.79608073  0.14665494  0.59334557    -0.03600
C1366       C  0.78137035  0.16558114  0.59973809    -0.00800
C1367       C  0.77357359  0.18178441  0.58266414     0.04200
C1368       C  0.78212339  0.18057342  0.55934465    -0.03600
C1369       C  0.79774137  0.16215986  0.55321849    -0.00700
C1370       C  0.80442139  0.14521356  0.57002672     0.04200
C1371       C  0.77572661  0.16979000  0.62416004     0.38900
C1372       C  0.80750898  0.16073946  0.52973340     0.38900
C1373       C  0.81987983  0.12612748  0.56315257     0.37300
C1374       C  0.75602208  0.19914269  0.58911591     0.37300
N1375       N  0.83213091  0.11087350  0.55763517    -0.37500
N1376       N  0.74187159  0.21280115  0.59427669    -0.37500
N1377       N  0.81528132  0.15955019  0.51101065    -0.37000
N1378       N  0.77137220  0.17417112  0.64349758    -0.37000
C1379       C  0.77650089  0.05028340  0.68799456    -0.03600
C1380       C  0.79141815  0.06904947  0.69476663    -0.00800
C1381       C  0.80016788  0.08488471  0.67786026     0.04200
C1382       C  0.79420801  0.08234301  0.65390675    -0.03600
C1383       C  0.78061921  0.06290178  0.64688547    -0.00700
C1384       C  0.77127060  0.04734897  0.66378755     0.04200
C1385       C  0.79839632  0.07201849  0.71910439     0.38900
C1386       C  0.77765680  0.05773630  0.62215309     0.38900
C1387       C  0.75579217  0.02870556  0.65599123     0.37300
C1388       C  0.81513326  0.10410883  0.68532616     0.37300
N1389       N  0.74343692  0.01392325  0.64959759    -0.37500
N1390       N  0.82699780  0.11945338  0.69131473    -0.37500
N1391       N  0.77552228  0.05285486  0.60255968    -0.37000
N1392       N  0.80394994  0.07448486  0.73849163    -0.37000
C1393       C  0.65053068  0.08951155  0.79184644    -0.03600
C1394       C  0.67336233  0.09067174  0.80124403    -0.00800
C1395       C  0.69022260  0.07352618  0.79513486     0.04200
C1396       C  0.68402328  0.05451734  0.78026666    -0.03600
C1397       C  0.66048373  0.05262927  0.77229618    -0.00700
C1398       C  0.64377857  0.06985446  0.77843849     0.04200
C1399       C  0.67972545  0.11011545  0.81640502     0.38900
C1400       C  0.65359010  0.03388101  0.75647550     0.38900
C1401       C  0.61966663  0.06764626  0.77053820     0.37300
C1402       C  0.71414330  0.07634331  0.80331367     0.37300
N1403       N  0.60042149  0.06573171  0.76434746    -0.37500
N1404       N  0.73324822  0.07921770  0.80955385    -0.37500
N1405       N  0.64804546  0.01903120  0.74377316    -0.37000
N1406       N  0.68471827  0.12559132  0.82856886    -0.37000
C1407       C  0.66607552  0.14532479  0.44899663    -0.03600
C1408       C  0.66448113  0.16873863  0.44087519    -0.00800
C1409       C  0.67956110  0.18620259  0.44988944     0.04200
C1410       C  0.69692214  0.18032779  0.46670387    -0.03600
C1411       C  0.69842799  0.15690416  0.47486897    -0.00700
C1412       C  0.68351572  0.13943158  0.46562782     0.04200
C1413       C  0.64738209  0.17492854  0.42300195     0.38900
C1414       C  0.71492229  0.15074634  0.49334051     0.38900
C1415       C  0.68765069  0.11515990  0.47198385     0.37300
C1416       C  0.67736489  0.21013520  0.44140107     0.37300
N1417       N  0.69198481  0.09600175  0.47716801    -0.37500
N1418       N  0.67545645  0.22924302  0.43475247    -0.37500
N1419       N  0.72797050  0.14583403  0.50813644    -0.37000
N1420       N  0.63379719  0.17987252  0.40871400    -0.37000
C1421       C  0.64364861  0.94710662  0.66399946    -0.03600
C1422       C  0.64039474  0.94601308  0.68847318    -0.00800
C1423       C  0.65847953  0.95309179  0.70390394     0.04200
C1424       C  0.68090058  0.95981749  0.69500841    -0.03600
C1425       C  0.68496028  0.95710544  0.67047043    -0.00700
C1426       C  0.66632171  0.95124809  0.65515174     0.04200
C1427       C  0.61858386  0.93682624  0.69787310     0.38900
C1428       C  0.70838997  0.95905011  0.66069277     0.38900
C1429       C  0.67101335  0.94739475  0.63043634     0.37300
C1430       C  0.65372643  0.95260356  0.72893583     0.37300
N1431       N  0.67522445  0.94381340  0.61090415    -0.37500
N1432       N  0.64975876  0.95218061  0.74885306    -0.37500
N1433       N  0.72706818  0.96011784  0.65279858    -0.37000
N1434       N  0.60127322  0.92938913  0.70541589    -0.37000
C1435       C  0.53412335  0.12816655  0.61442183    -0.03600
C1436       C  0.52488596  0.13742593  0.59342947    -0.00800
C1437       C  0.50049775  0.14017107  0.59073212     0.04200
C1438       C  0.48512325  0.13412246  0.60919738    -0.03600
C1439       C  0.49448412  0.12521280  0.63039579    -0.00700
C1440       C  0.51893977  0.12223908  0.63300063     0.04200
C1441       C  0.54065128  0.14524294  0.57499268     0.38900
C1442       C  0.47905714  0.11843866  0.64936538     0.38900
C1443       C  0.52845200  0.11262685  0.65459956     0.37300
C1444       C  0.49153386  0.15029021  0.56922570     0.37300
N1445       N  0.53599968  0.10493911  0.67183267    -0.37500
N1446       N  0.48527836  0.15884990  0.55189924    -0.37500
N1447       N  0.46723913  0.11267173  0.66481880    -0.37000
N1448       N  0.55330485  0.15162444  0.56046459    -0.37000
C1449       C  0.62710612  0.11935875  0.52688849    -0.03600
C1450       C  0.63529067  0.09871849  0.51601490    -0.00800
C1451       C  0.63571569  0.09692779  0.49138711     0.04200
C1452       C  0.62986334  0.11651555  0.47735739    -0.03600
C1453       C  0.62247112  0.13754219  0.48830465    -0.00700
C1454       C  0.62083938  0.13886875  0.51298787     0.04200
C1455       C  0.64605165  0.08046367  0.53009484     0.38900
C1456       C  0.61618204  0.15778178  0.47428824     0.38900
C1457       C  0.61299254  0.16040732  0.52411423     0.37300
C1458       C  0.64376478  0.07530945  0.48068521     0.37300
N1459       N  0.60684760  0.17761737  0.53300566    -0.37500
N1460       N  0.65057985  0.05786260  0.47281483    -0.37500
N1461       N  0.61088959  0.17421550  0.46357123    -0.37000
N1462       N  0.65565604  0.06635384  0.54109652    -0.37000
C1463       C  0.61761140  0.03140205  0.62476735    -0.03600
C1464       C  0.61177051  0.02177232  0.64681787    -0.00800
C1465       C  0.61077788  0.99719109  0.64982279     0.04200
C1466       C  0.61691431  0.98199356  0.63115686    -0.03600
C1467       C  0.62407608  0.99178119  0.60960025    -0.00700
C1468       C  0.62297484  0.01620842  0.60597922     0.04200
C1469       C  0.60515103  0.03720458  0.66600804     0.38900
C1470       C  0.63314005  0.97680636  0.59116999     0.38900
C1471       C  0.62650528  0.02537600  0.58259573     0.37300
C1472       C  0.60166961  0.98793035  0.67160835     0.37300
N1473       N  0.62857502  0.03194780  0.56353047    -0.37500
N1474       N  0.59368768  0.98167294  0.68917886    -0.37500
N1475       N  0.64081169  0.96538634  0.57622875    -0.37000
N1476       N  0.59976774  0.04953176  0.68123342    -0.37000
C1477       C  0.62606405  0.26344257  0.61506855    -0.03600
C1478       C  0.64690567  0.25074583  0.61990878    -0.00800
C1479       C  0.64694879  0.22596325  0.61960497     0.04200
C1480       C  0.62590290  0.21352602  0.61570717    -0.03600
C1481       C  0.60496046  0.22609137  0.61135870    -0.00700
C1482       C  0.60513397  0.25086657  0.61059121     0.04200
C1483       C  0.66819251  0.26296436  0.62641700     0.38900
C1484       C  0.58334416  0.21347318  0.60661068     0.38900
C1485       C  0.58395582  0.26319522  0.60377970     0.37300
C1486       C  0.66865199  0.21325645  0.62388602     0.37300
N1487       N  0.56683666  0.27244906  0.59791168    -0.37500
N1488       N  0.68598563  0.20313787  0.62714220    -0.37500
N1489       N  0.56613803  0.20338190  0.60283342    -0.37000
N1490       N  0.68539883  0.27209533  0.63212509    -0.37000
C1491       C  0.71389804  0.11607720  0.61843983    -0.03600
C1492       C  0.72517270  0.12075130  0.63996460    -0.00800
C1493       C  0.74978309  0.11978655  0.64152043     0.04200
C1494       C  0.76331503  0.11387088  0.62160672    -0.03600
C1495       C  0.75185790  0.10847648  0.60023520    -0.00700
C1496       C  0.72719684  0.10965595  0.59864210     0.04200
C1497       C  0.71140393  0.12728484  0.66042010     0.38900
C1498       C  0.76527986  0.10083811  0.58006492     0.38900
C1499       C  0.71542313  0.10339335  0.57692824     0.37300
C1500       C  0.76100662  0.12627322  0.66337129     0.37300
N1501       N  0.70601129  0.09826081  0.55967080    -0.37500
N1502       N  0.76924312  0.13199290  0.68102942    -0.37500
N1503       N  0.77551696  0.09434941  0.56377362    -0.37000
N1504       N  0.70035350  0.13243583  0.67666388    -0.37000
C1505       C  0.63147849  0.12897199  0.70849046    -0.03600
C1506       C  0.64183900  0.11019462  0.72123124    -0.00800
C1507       C  0.64829084  0.11354284  0.74463401     0.04200
C1508       C  0.63717898  0.13128918  0.75755294    -0.03600
C1509       C  0.63180096  0.15192602  0.74497951    -0.00700
C1510       C  0.62820681  0.15070633  0.72040234     0.04200
C1511       C  0.64736427  0.08770016  0.71066820     0.38900
C1512       C  0.63373150  0.17445188  0.75655042     0.38900
C1513       C  0.62159542  0.17177826  0.70774846     0.37300
C1514       C  0.67281383  0.10923498  0.74956057     0.37300
N1515       N  0.61625319  0.18866271  0.69777175    -0.37500
N1516       N  0.69272921  0.10644285  0.75247963    -0.37500
N1517       N  0.63578109  0.19258462  0.76547394    -0.37000
N1518       N  0.65181732  0.06964237  0.70247690    -0.37000
C1519       C  0.80627050  0.02515723  0.81130625    -0.03600
C1520       C  0.79765281  0.03746611  0.83097179    -0.00800
C1521       C  0.81328375  0.04646362  0.84790498     0.04200
C1522       C  0.83765913  0.04197960  0.84610849    -0.03600
C1523       C  0.84628781  0.02978482  0.82626905    -0.00700
C1524       C  0.83062234  0.02127506  0.80902377     0.04200
C1525       C  0.77254474  0.03934718  0.83471818     0.38900
C1526       C  0.87131371  0.02730455  0.82258039     0.38900
C1527       C  0.83959656  0.00883725  0.78868420     0.37300
C1528       C  0.80407465  0.05995199  0.86745654     0.37300
N1529       N  0.84674544  0.99889582  0.77247546    -0.37500
N1530       N  0.79668498  0.07067797  0.88304564    -0.37500
N1531       N  0.89117974  0.02536089  0.81886767    -0.37000
N1532       N  0.75253895  0.04034308  0.83802529    -0.37000
C1533       C  0.70154535  0.90291764  0.85015787    -0.03600
C1534       C  0.69444260  0.90056443  0.82647014    -0.00800
C1535       C  0.70272635  0.91633635  0.80937166     0.04200
C1536       C  0.71772638  0.93490803  0.81586082    -0.03600
C1537       C  0.72407436  0.93791320  0.83960165    -0.00700
C1538       C  0.71573227  0.92215178  0.85676085     0.04200
C1539       C  0.67877594  0.88174383  0.81950419     0.38900
C1540       C  0.73831003  0.95787309  0.84651907     0.38900
C1541       C  0.72018805  0.92704262  0.88130291     0.37300
C1542       C  0.69635347  0.91303781  0.78490961     0.37300
N1543       N  0.72364530  0.93182338  0.90073044    -0.37500
N1544       N  0.69137129  0.91044885  0.76538686    -0.37500
N1545       N  0.74958165  0.97383456  0.85203203    -0.37000
N1546       N  0.66626716  0.86677408  0.81389560    -0.37000
C1547       C  0.83274791  0.89107733  0.70673022    -0.03600
C1548       C  0.83260304  0.91321610  0.69534790    -0.00800
C1549       C  0.81686543  0.93096254  0.70250636     0.04200
C1550       C  0.80200116  0.92732988  0.72199909    -0.03600
C1551       C  0.80190492  0.90516055  0.73319228    -0.00700
C1552       C  0.81649144  0.88686675  0.72496041     0.04200
C1553       C  0.84917940  0.91818700  0.67665987     0.38900
C1554       C  0.78607146  0.90076925  0.75265677     0.38900
C1555       C  0.81324476  0.86338359  0.73413850     0.37300
C1556       C  0.81640081  0.95315909  0.68998646     0.37300
N1557       N  0.80976925  0.84480862  0.74155794    -0.37500
N1558       N  0.81588099  0.97072828  0.67979638    -0.37500
N1559       N  0.77354016  0.89727541  0.76824064    -0.37000
N1560       N  0.86239633  0.92218858  0.66178398    -0.37000
C1561       C  0.78306360  0.86981849  0.87954506    -0.03600
C1562       C  0.77034110  0.86384652  0.85915216    -0.00800
C1563       C  0.74558994  0.86401185  0.85944528     0.04200
C1564       C  0.73334250  0.87031644  0.88007591    -0.03600
C1565       C  0.74618686  0.87616808  0.90048977    -0.00700
C1566       C  0.77091162  0.87576532  0.90026997     0.04200
C1567       C  0.78273285  0.85665320  0.83808074     0.38900
C1568       C  0.73419485  0.88389285  0.92150084     0.38900
C1569       C  0.78387589  0.88234245  0.92121755     0.37300
C1570       C  0.73286662  0.85682920  0.83866178     0.37300
N1571       N  0.79422025  0.88756720  0.93790311    -0.37500
N1572       N  0.72325994  0.85072105  0.82184421    -0.37500
N1573       N  0.72539096  0.89060609  0.93851997    -0.37000
N1574       N  0.79262013  0.85084229  0.82131749    -0.37000
C1575       C  0.87652818  0.78099094  0.88583947    -0.03600
C1576       C  0.85617318  0.76719868  0.88293568    -0.00800
C1577       C  0.85783711  0.74250482  0.88319075     0.04200
C1578       C  0.87964478  0.73143609  0.88757844    -0.03600
C1579       C  0.89970208  0.74537926  0.89178506    -0.00700
C1580       C  0.89823753  0.77001151  0.89052705     0.04200
C1581       C  0.83355515  0.77836088  0.87916424     0.38900
C1582       C  0.92164109  0.73455654  0.89877281     0.38900
C1583       C  0.91894482  0.78413955  0.89506736     0.37300
C1584       C  0.83725293  0.72862358  0.87779330     0.37300
N1585       N  0.93540542  0.79544238  0.89871807    -0.37500
N1586       N  0.82065799  0.71790962  0.87311817    -0.37500
N1587       N  0.93926128  0.72646414  0.90486460    -0.37000
N1588       N  0.81546480  0.78721151  0.87637501    -0.37000
C1589       C  0.96427141  0.87517920  0.87614489    -0.03600
C1590       C  0.97684618  0.87284049  0.89734005    -0.00800
C1591       C  0.00151918  0.87337132  0.89725579     0.04200
C1592       C  0.01386610  0.87769829  0.87618147    -0.03600
C1593       C  0.00111634  0.88117305  0.85513783    -0.00700
C1594       C  0.97644644  0.87921760  0.85499193     0.04200
C1595       C  0.96438849  0.86907010  0.91925854     0.38900
C1596       C  0.01321249  0.88769449  0.83377122     0.38900
C1597       C  0.96355153  0.88206550  0.83318718     0.37300
C1598       C  0.01395026  0.86763072  0.91867071     0.37300
N1599       N  0.95327731  0.88424975  0.81578793    -0.37500
N1600       N  0.02306693  0.86236127  0.93604420    -0.37500
N1601       N  0.02247174  0.89325190  0.81658565    -0.37000
N1602       N  0.95442011  0.86623713  0.93671490    -0.37000
C1603       C  0.87680149  0.87518633  0.96977296    -0.03600
C1604       C  0.88227475  0.85453364  0.98230580    -0.00800
C1605       C  0.88251000  0.85467996  0.00703414     0.04200
C1606       C  0.87694766  0.87539810  0.01949613    -0.03600
C1607       C  0.87185368  0.89618021  0.00686649    -0.00700
C1608       C  0.87203304  0.89613131  0.98210456     0.04200
C1609       C  0.88849317  0.83326717  0.96968933     0.38900
C1610       C  0.86517228  0.91739504  0.01918771     0.38900
C1611       C  0.86648742  0.91747979  0.96931877     0.37300
C1612       C  0.88952036  0.83367162  0.01952000     0.37300
N1613       N  0.86209321  0.93452805  0.95916155    -0.37500
N1614       N  0.89556885  0.81672536  0.02896392    -0.37500
N1615       N  0.85942672  0.93450257  0.02852364    -0.37000
N1616       N  0.89351395  0.81636448  0.95958821    -0.37000
C1617       C  0.87236256  0.86562669  0.78776923    -0.03600
C1618       C  0.87635501  0.88580494  0.77396520    -0.00800
C1619       C  0.87396964  0.88474793  0.74934879     0.04200
C1620       C  0.86837493  0.86330477  0.73824717    -0.03600
C1621       C  0.86502759  0.84296681  0.75209794    -0.00700
C1622       C  0.86686039  0.84415379  0.77674497     0.04200
C1623       C  0.88388236  0.90745976  0.78505591     0.38900
C1624       C  0.85809329  0.82107429  0.74118892     0.38900
C1625       C  0.86201916  0.82347212  0.79081942     0.37300
C1626       C  0.87780550  0.90568853  0.73548169     0.37300
N1627       N  0.85808151  0.80701381  0.80204561    -0.37500
N1628       N  0.88103669  0.92258201  0.72468949    -0.37500
N1629       N  0.85218972  0.80347714  0.73296030    -0.37000
N1630       N  0.89010947  0.92463368  0.79392498    -0.37000
C1631       C  0.87086868  0.96164269  0.87598593    -0.03600
C1632       C  0.89106059  0.97504844  0.87107653    -0.00800
C1633       C  0.89010774  0.99974056  0.87234092     0.04200
C1634       C  0.86884818  0.01115518  0.87817976    -0.03600
C1635       C  0.84873924  0.99757144  0.88324834    -0.00700
C1636       C  0.84976473  0.97292211  0.88220300     0.04200
C1637       C  0.91266568  0.96341561  0.86413302     0.38900
C1638       C  0.82732202  0.00872725  0.89116684     0.38900
C1639       C  0.82940861  0.95907655  0.88875718     0.37300
C1640       C  0.91093414  0.01327198  0.86707409     0.37300
N1641       N  0.81328833  0.94797271  0.89410831    -0.37500
N1642       N  0.92781041  0.02362847  0.86264576    -0.37500
N1643       N  0.81007234  0.01690416  0.89810411    -0.37000
N1644       N  0.92984059  0.95410655  0.85852209    -0.37000
C1645       C  0.02876089  0.81127819  0.81414378    -0.03600
C1646       C  0.02102244  0.81066594  0.83765509    -0.00800
C1647       C  0.03013849  0.82664083  0.85418482     0.04200
C1648       C  0.04563975  0.84459045  0.84698736    -0.03600
C1649       C  0.05352351  0.84506671  0.82342665    -0.00700
C1650       C  0.04532695  0.82831114  0.80716372     0.04200
C1651       C  0.00423994  0.79301699  0.84510412     0.38900
C1652       C  0.06967123  0.86314542  0.81564756     0.38900
C1653       C  0.05341818  0.82911012  0.78302314     0.37300
C1654       C  0.02499127  0.82310981  0.87881412     0.37300
N1655       N  0.05993179  0.82973793  0.76380053    -0.37500
N1656       N  0.02086421  0.81928094  0.89831339    -0.37500
N1657       N  0.08251968  0.87757367  0.80943881    -0.37000
N1658       N  0.99075516  0.77904054  0.85098879    -0.37000
C1659       C  0.93574453  0.80463773  0.72386935    -0.03600
C1660       C  0.91768462  0.79491171  0.71002179    -0.00800
C1661       C  0.89984933  0.80944019  0.70090982     0.04200
C1662       C  0.89990302  0.83380956  0.70577158    -0.03600
C1663       C  0.91903557  0.84366359  0.71809997    -0.00700
C1664       C  0.93646767  0.82902878  0.72782483     0.04200
C1665       C  0.91704932  0.76977436  0.70580547     0.38900
C1666       C  0.92217285  0.86887174  0.71886033     0.38900
C1667       C  0.95557687  0.83914026  0.74129958     0.37300
C1668       C  0.88137278  0.79912975  0.68674267     0.37300
N1669       N  0.97078767  0.84716331  0.75210258    -0.37500
N1670       N  0.86674171  0.79083864  0.67535842    -0.37500
N1671       N  0.92559041  0.88888087  0.71913750    -0.37000
N1672       N  0.91660483  0.74972961  0.70252265    -0.37000
C1673       C  0.94160621  0.71757780  0.81919324    -0.03600
C1674       C  0.91744022  0.72307536  0.81875518    -0.00800
C1675       C  0.90222343  0.71395211  0.83607517     0.04200
C1676       C  0.91126512  0.70087919  0.85516912    -0.03600
C1677       C  0.93552965  0.69531572  0.85551079    -0.00700
C1678       C  0.95051310  0.70335677  0.83746360     0.04200
C1679       C  0.90805178  0.73758020  0.80001817     0.38900
C1680       C  0.94532651  0.68167772  0.87468331     0.38900
C1681       C  0.97532357  0.69755231  0.83808358     0.37300
C1682       C  0.87711312  0.71620690  0.83283708     0.37300
N1683       N  0.99510168  0.69290259  0.83851056    -0.37500
N1684       N  0.85715617  0.71771758  0.82939649    -0.37500
N1685       N  0.95321210  0.67092544  0.89002530    -0.37000
N1686       N  0.90058757  0.74927506  0.78516328    -0.37000
C1687       C  0.09406608  0.65600455  0.80403457    -0.03600
C1688       C  0.09601538  0.67992293  0.81026848    -0.00800
C1689       C  0.07969960  0.69650893  0.80163011     0.04200
C1690       C  0.06129314  0.68932708  0.78644911    -0.03600
C1691       C  0.05916176  0.66517916  0.78077559    -0.00700
C1692       C  0.07485542  0.64861222  0.79034524     0.04200
C1693       C  0.11483310  0.68753794  0.82567290     0.38900
C1694       C  0.04119952  0.65713386  0.76457074     0.38900
C1695       C  0.06983319  0.62382606  0.78774752     0.37300
C1696       C  0.08169273  0.72081857  0.80901340     0.37300
N1697       N  0.06482715  0.60423778  0.78596561    -0.37500
N1698       N  0.08337201  0.74017251  0.81496277    -0.37500
N1699       N  0.02693164  0.65069414  0.75162376    -0.37000
N1700       N  0.12984157  0.69360641  0.83794133    -0.37000
C1701       C  0.09449328  0.79910985  0.66339123    -0.03600
C1702       C  0.10109418  0.78301749  0.68101469    -0.00800
C1703       C  0.08399528  0.77305179  0.69584185     0.04200
C1704       C  0.06027813  0.78049900  0.69452409    -0.03600
C1705       C  0.05390416  0.79764781  0.67767940    -0.00700
C1706       C  0.07086987  0.80674596  0.66210684     0.04200
C1707       C  0.12567614  0.77801929  0.68528929     0.38900
C1708       C  0.03006144  0.80662292  0.67673441     0.38900
C1709       C  0.06385881  0.82387706  0.64455952     0.37300
C1710       C  0.09091233  0.75460445  0.71203118     0.37300
N1711       N  0.05829391  0.83751321  0.63055275    -0.37500
N1712       N  0.09645568  0.73981558  0.72482604    -0.37500
N1713       N  0.01108882  0.81387768  0.67594621    -0.37000
N1714       N  0.14517285  0.77416168  0.68949497    -0.37000
C1715       C  0.95258975  0.65535687  0.65928760    -0.03600
C1716       C  0.94641519  0.65261539  0.68314933    -0.00800
C1717       C  0.95471036  0.66859566  0.70023352     0.04200
C1718       C  0.96947543  0.68754031  0.69369285    -0.03600
C1719       C  0.97469287  0.69073479  0.66949887    -0.00700
C1720       C  0.96550355  0.67527749  0.65246805     0.04200
C1721       C  0.93151661  0.63324049  0.69025024     0.38900
C1722       C  0.98995099  0.70960386  0.66177164     0.38900
C1723       C  0.96765377  0.68114871  0.62781086     0.37300
C1724       C  0.94734256  0.66572540  0.72443571     0.37300
N1725       N  0.96898511  0.68667813  0.60832266    -0.37500
N1726       N  0.94141434  0.66341870  0.74371962    -0.37500
N1727       N  0.00209993  0.72458348  0.65544868    -0.37000
N1728       N  0.91963727  0.61780706  0.69595026    -0.37000
C1729       C  0.13202272  0.62080668  0.54007412    -0.03600
C1730       C  0.15187651  0.62893959  0.52721203    -0.00800
C1731       C  0.15288319  0.62551445  0.50265672     0.04200
C1732       C  0.13303084  0.61703838  0.49071243    -0.03600
C1733       C  0.11875502  0.60195992  0.50383647    -0.00700
C1734       C  0.11591325  0.60599628  0.52795450     0.04200
C1735       C  0.17135822  0.64064369  0.53861667     0.38900
C1736       C  0.11576694  0.57811753  0.49562465     0.38900
C1737       C  0.09662013  0.59417736  0.53956982     0.37300
C1738       C  0.17530807  0.62577101  0.49075325     0.37300
N1739       N  0.08108495  0.58474421  0.54860224    -0.37500
N1740       N  0.19343962  0.62549319  0.48161829    -0.37500
N1741       N  0.11389993  0.55876516  0.48973814    -0.37000
N1742       N  0.18692391  0.65026165  0.54742011    -0.37000
C1743       C  0.12598342  0.53794969  0.63040545    -0.03600
C1744       C  0.14686885  0.52549883  0.62560763    -0.00800
C1745       C  0.14659005  0.50079663  0.62414131     0.04200
C1746       C  0.12562981  0.48821578  0.62836836    -0.03600
C1747       C  0.10474636  0.50079959  0.63317838    -0.00700
C1748       C  0.10486494  0.52553751  0.63385823     0.04200
C1749       C  0.16859371  0.53813880  0.62150380     0.38900
C1750       C  0.08333560  0.48851317  0.63906590     0.38900
C1751       C  0.08336234  0.53821299  0.63915591     0.37300
C1752       C  0.16780708  0.48850522  0.61740121     0.37300
N1753       N  0.06625264  0.54835574  0.64335097    -0.37500
N1754       N  0.18494131  0.47921468  0.61165841    -0.37500
N1755       N  0.06593697  0.47948204  0.64428054    -0.37000
N1756       N  0.18591404  0.54822307  0.61830751    -0.37000
C1757       C  0.98637810  0.62586448  0.62887823    -0.03600
C1758       C  0.99879054  0.63346608  0.60881331    -0.00800
C1759       C  0.02345369  0.63523553  0.60936766     0.04200
C1760       C  0.03590383  0.62920177  0.62990101    -0.03600
C1761       C  0.02358834  0.62175436  0.65000831    -0.00700
C1762       C  0.99892480  0.62016094  0.64952315     0.04200
C1763       C  0.98626708  0.64039669  0.58780492     0.38900
C1764       C  0.03637921  0.61477158  0.67093415     0.38900
C1765       C  0.98666439  0.61156882  0.67003267     0.37300
C1766       C  0.03600750  0.64402935  0.58903592     0.37300
N1767       N  0.97739834  0.60431627  0.68656646    -0.37500
N1768       N  0.04600967  0.65116753  0.57288104    -0.37500
N1769       N  0.04657835  0.60912835  0.68758438    -0.37000
N1770       N  0.97679505  0.64639358  0.57085867    -0.37000
C1771       C  0.21701366  0.62969667  0.63340965    -0.03600
C1772       C  0.22867983  0.63591879  0.65430855    -0.00800
C1773       C  0.25325637  0.63842852  0.65445186     0.04200
C1774       C  0.26638792  0.63442890  0.63377480    -0.03600
C1775       C  0.25466123  0.62756165  0.61304098    -0.00700
C1776       C  0.23007936  0.62497855  0.61293811     0.04200
C1777       C  0.21532530  0.64042895  0.67553703     0.38900
C1778       C  0.26779159  0.62248223  0.59190284     0.38900
C1779       C  0.21830194  0.61625775  0.59210170     0.37300
C1780       C  0.26474097  0.64659052  0.67560215     0.37300
N1781       N  0.20895550  0.60894599  0.57562081    -0.37500
N1782       N  0.27329089  0.65357230  0.69264614    -0.37500
N1783       N  0.27776975  0.61809331  0.57477397    -0.37000
N1784       N  0.20468556  0.64394026  0.69247413    -0.37000
C1785       C  0.12604732  0.71985923  0.62838581    -0.03600
C1786       C  0.10491227  0.73218098  0.62437546    -0.00800
C1787       C  0.10470459  0.75695595  0.62427547     0.04200
C1788       C  0.12541533  0.76968906  0.62926358    -0.03600
C1789       C  0.14652463  0.75722486  0.63341841    -0.00700
C1790       C  0.14695656  0.73248327  0.63237000     0.04200
C1791       C  0.08340855  0.71933050  0.61979789     0.38900
C1792       C  0.16752041  0.76957288  0.64060354     0.38900
C1793       C  0.16882586  0.71997419  0.63640113     0.37300
C1794       C  0.08321938  0.76918938  0.61831386     0.37300
N1795       N  0.18627585  0.71001185  0.63951470    -0.37500
N1796       N  0.06586795  0.77845790  0.61318878    -0.37500
N1797       N  0.18446523  0.77878656  0.64692037    -0.37000
N1798       N  0.06626926  0.70906011  0.61621269    -0.37000
C1799       C  0.12546897  0.62816367  0.72211663    -0.03600
C1800       C  0.11907603  0.60748561  0.73413413    -0.00800
C1801       C  0.11964226  0.60678200  0.75887004     0.04200
C1802       C  0.12637871  0.62682447  0.77183343    -0.03600
C1803       C  0.13269313  0.64752276  0.75972335    -0.00700
C1804       C  0.13226506  0.64818173  0.73498053     0.04200
C1805       C  0.11108464  0.58714459  0.72103645     0.38900
C1806       C  0.14059351  0.66794937  0.77257617     0.38900
C1807       C  0.13968904  0.66922133  0.72270875     0.37300
C1808       C  0.11235880  0.58561917  0.77086686     0.37300
N1809       N  0.14567704  0.68595565  0.71289730    -0.37500
N1810       N  0.10610249  0.56855701  0.77990634    -0.37500
N1811       N  0.14729861  0.68445000  0.78232070    -0.37000
N1812       N  0.10460970  0.57096886  0.71060248    -0.37000
C1813       C  0.81102649  0.81088389  0.03563435    -0.03600
C1814       C  0.80851848  0.83483427  0.02913594    -0.00800
C1815       C  0.82489815  0.85177004  0.03689914     0.04200
C1816       C  0.84418184  0.84507546  0.05097216    -0.03600
C1817       C  0.84628725  0.82140817  0.05815476    -0.00700
C1818       C  0.83019641  0.80436782  0.05019043     0.04200
C1819       C  0.78933939  0.84228524  0.01405026     0.38900
C1820       C  0.86519963  0.81439705  0.07378849     0.38900
C1821       C  0.83351240  0.78014265  0.05741370     0.37300
C1822       C  0.82084610  0.87631621  0.03154205     0.37300
N1823       N  0.83646713  0.76083785  0.06303340    -0.37500
N1824       N  0.81683517  0.89575810  0.02722173    -0.37500
N1825       N  0.88020507  0.80880008  0.08630771    -0.37000
N1826       N  0.77403455  0.84833355  0.00210732    -0.37000
C1827       C  0.81563342  0.71550693  0.95068570    -0.03600
C1828       C  0.83878534  0.72434442  0.95259529    -0.00800
C1829       C  0.85691488  0.71529458  0.93833347     0.04200
C1830       C  0.85196120  0.69837033  0.92093068    -0.03600
C1831       C  0.82912860  0.68857766  0.91988904    -0.00700
C1832       C  0.81108201  0.69712628  0.93463548     0.04200
C1833       C  0.84403091  0.74325012  0.96886824     0.38900
C1834       C  0.82396949  0.66984684  0.90342196     0.38900
C1835       C  0.78798669  0.68645412  0.93370092     0.37300
C1836       C  0.88092568  0.72225229  0.94292193     0.37300
N1837       N  0.76959849  0.67788272  0.93299761    -0.37500
N1838       N  0.89993580  0.72775381  0.94743195    -0.37500
N1839       N  0.81983863  0.65479070  0.89043022    -0.37000
N1840       N  0.84821299  0.75832565  0.98182475    -0.37000
C1841       C  0.71967054  0.80654661  0.94391912    -0.03600
C1842       C  0.70603582  0.82622837  0.95114724    -0.00800
C1843       C  0.69641909  0.84173412  0.93439132     0.04200
C1844       C  0.70135775  0.83876310  0.91033849    -0.03600
C1845       C  0.71390416  0.81879223  0.90289128    -0.00700
C1846       C  0.72324254  0.80289221  0.91948493     0.04200
C1847       C  0.70171752  0.83097284  0.97580462     0.38900
C1848       C  0.71583363  0.81361590  0.87805161     0.38900
C1849       C  0.73701302  0.78315567  0.91105815     0.37300
C1850       C  0.68149843  0.86099428  0.94201592     0.37300
N1851       N  0.74792486  0.76743784  0.90418770    -0.37500
N1852       N  0.66959590  0.87632950  0.94805202    -0.37500
N1853       N  0.71712210  0.80882594  0.85836343    -0.37000
N1854       N  0.69844176  0.83517085  0.99540539    -0.37000
C1855       C  0.65447309  0.79601720  0.09757746    -0.03600
C1856       C  0.65156179  0.79987586  0.07323725    -0.00800
C1857       C  0.66837127  0.79133167  0.05715512     0.04200
C1858       C  0.68856632  0.77949596  0.06533008    -0.03600
C1859       C  0.69232601  0.77714109  0.08969088    -0.00700
C1860       C  0.67551872  0.78572193  0.10576409     0.04200
C1861       C  0.63159179  0.81321899  0.06472997     0.38900
C1862       C  0.71407325  0.76689630  0.09820684     0.38900
C1863       C  0.68112257  0.78611595  0.13054774     0.37300
C1864       C  0.66467337  0.79435203  0.03214573     0.37300
N1865       N  0.68648493  0.78689512  0.15011709    -0.37500
N1866       N  0.66166551  0.79669232  0.01219471    -0.37500
N1867       N  0.73149233  0.75885856  0.10494106    -0.37000
N1868       N  0.61572899  0.82398091  0.05794669    -0.37000
C1869       C  0.78001202  0.68960944  0.07049122    -0.03600
C1870       C  0.79106796  0.69824265  0.09087938    -0.00800
C1871       C  0.79899226  0.68255726  0.10830706     0.04200
C1872       C  0.79472262  0.65819962  0.10606300    -0.03600
C1873       C  0.78472228  0.64950522  0.08512366    -0.00700
C1874       C  0.77758408  0.66517224  0.06730202     0.04200
C1875       C  0.79379620  0.72334603  0.09418938     0.38900
C1876       C  0.78347577  0.62442971  0.08102158     0.38900
C1877       C  0.76936675  0.65607528  0.04500052     0.37300
C1878       C  0.81140616  0.69159805  0.12862578     0.37300
N1879       N  0.76340657  0.64865302  0.02706472    -0.37500
N1880       N  0.82131938  0.69881853  0.14481706    -0.37500
N1881       N  0.78270794  0.60450357  0.07717903    -0.37000
N1882       N  0.79584445  0.74337174  0.09688114    -0.37000
C1883       C  0.66363353  0.64947116  0.95612188    -0.03600
C1884       C  0.67855524  0.64456810  0.97529587    -0.00800
C1885       C  0.69151230  0.66272108  0.98596461     0.04200
C1886       C  0.69250750  0.68520344  0.97550125    -0.03600
C1887       C  0.67863532  0.68984139  0.95543473    -0.00700
C1888       C  0.66378679  0.67230272  0.94621087     0.04200
C1889       C  0.68226622  0.62060187  0.98298548     0.38900
C1890       C  0.67874551  0.71303149  0.94485137     0.38900
C1891       C  0.64815580  0.67812208  0.92692042     0.37300
C1892       C  0.70353417  0.65809151  0.00790887     0.37300
N1893       N  0.63566608  0.68281499  0.91158561    -0.37500
N1894       N  0.71236770  0.65439110  0.02581682    -0.37500
N1895       N  0.67884212  0.73149331  0.93636989    -0.37000
N1896       N  0.68606053  0.60161667  0.98914720    -0.37000
C1897       C  0.61893074  0.53300089  0.12869478    -0.03600
C1898       C  0.63415346  0.52214518  0.14492496    -0.00800
C1899       C  0.63024015  0.49869068  0.15143853     0.04200
C1900       C  0.61536611  0.48462631  0.13758282    -0.03600
C1901       C  0.59664682  0.49660930  0.12658858    -0.00700
C1902       C  0.59929812  0.52039465  0.12043972     0.04200
C1903       C  0.65221435  0.53558640  0.15680659     0.38900
C1904       C  0.57326186  0.48682871  0.12748594     0.38900
C1905       C  0.58190160  0.53173999  0.10569238     0.37300
C1906       C  0.63204762  0.49343764  0.17621038     0.37300
N1907       N  0.56819831  0.54069047  0.09363450    -0.37500
N1908       N  0.63292222  0.49009848  0.19622858    -0.37500
N1909       N  0.55428338  0.47973637  0.12873907    -0.37000
N1910       N  0.66669123  0.54624560  0.16624057    -0.37000
C1911       C  0.52882856  0.62523220  0.12137104    -0.03600
C1912       C  0.51704334  0.64651313  0.11615193    -0.00800
C1913       C  0.49231230  0.64722829  0.11512734     0.04200
C1914       C  0.47894734  0.62711376  0.12065764    -0.03600
C1915       C  0.49066564  0.60627795  0.12719281    -0.00700
C1916       C  0.51535888  0.60498469  0.12650906     0.04200
C1917       C  0.53020771  0.66795121  0.11215707     0.38900
C1918       C  0.47740495  0.58618008  0.13525930     0.38900
C1919       C  0.52664959  0.58239532  0.13008581     0.37300
C1920       C  0.48091706  0.66843826  0.10696133     0.37300
N1921       N  0.53544584  0.56426778  0.13279451    -0.37500
N1922       N  0.47273248  0.68560802  0.09980853    -0.37500
N1923       N  0.46736198  0.56994053  0.14212606    -0.37000
N1924       N  0.54065565  0.68506903  0.10901862    -0.37000
C1925       C  0.71156483  0.62488616  0.13215013    -0.03600
C1926       C  0.72290761  0.64642657  0.13719648    -0.00800
C1927       C  0.74751063  0.64730264  0.13976020     0.04200
C1928       C  0.76137428  0.62711997  0.13576258    -0.03600
C1929       C  0.75015825  0.60576440  0.13004916    -0.00700
C1930       C  0.72542609  0.60445282  0.12901630     0.04200
C1931       C  0.70946332  0.66801647  0.13932664     0.38900
C1932       C  0.76396517  0.58511622  0.12457647     0.38900
C1933       C  0.71436134  0.58176018  0.12565326     0.37300
C1934       C  0.75824641  0.66878512  0.14803785     0.37300
N1935       N  0.70559304  0.56362230  0.12312988    -0.37500
N1936       N  0.76603258  0.68606628  0.15529941    -0.37500
N1937       N  0.77450731  0.56840370  0.11981453    -0.37000
N1938       N  0.69885706  0.68528716  0.14098127    -0.37000
C1939       C  0.61571280  0.61843433  0.21742779    -0.03600
C1940       C  0.61229928  0.59622164  0.22806023    -0.00800
C1941       C  0.61010088  0.59432904  0.25265447     0.04200
C1942       C  0.61292445  0.61427847  0.26714899    -0.03600
C1943       C  0.61768373  0.63619569  0.25658754    -0.00700
C1944       C  0.61798267  0.63845387  0.23193166     0.04200
C1945       C  0.61099820  0.57510602  0.21381074     0.38900
C1946       C  0.62237893  0.65659677  0.27100098     0.38900
C1947       C  0.61886822  0.66171437  0.22166061     0.37300
C1948       C  0.60289908  0.57210666  0.26264146     0.37300
N1949       N  0.61909730  0.68037986  0.21367931    -0.37500
N1950       N  0.59658453  0.55419156  0.26978506    -0.37500
N1951       N  0.62640669  0.67311228  0.28211175    -0.37000
N1952       N  0.60995285  0.55823977  0.20252868    -0.37000
C1953       C  0.62017162  0.71419632  0.12666286    -0.03600
C1954       C  0.63041398  0.72693411  0.14561941    -0.00800
C1955       C  0.63012855  0.75170310  0.14577095     0.04200
C1956       C  0.62123265  0.76430431  0.12650136    -0.03600
C1957       C  0.61182429  0.75199169  0.10729269    -0.00700
C1958       C  0.61032709  0.72726029  0.10769864     0.04200
C1959       C  0.64159966  0.71505892  0.16520842     0.38900
C1960       C  0.60320243  0.76471888  0.08703765     0.38900
C1961       C  0.59816722  0.71577327  0.08847630     0.37300
C1962       C  0.63949367  0.76421370  0.16581811     0.37300
N1963       N  0.58804938  0.70693889  0.07323950    -0.37500
N1964       N  0.64720028  0.77351127  0.18213958    -0.37500
N1965       N  0.59598762  0.77408512  0.07051619    -0.37000
N1966       N  0.65095159  0.70593638  0.18077714    -0.37000
C1967       C  0.62578041  0.62100856  0.03449717    -0.03600
C1968       C  0.62346069  0.64181609  0.02109167    -0.00800
C1969       C  0.62322845  0.64087643  0.99633561     0.04200
C1970       C  0.62765378  0.61952200  0.98451336    -0.03600
C1971       C  0.63075693  0.59882179  0.99789559    -0.00700
C1972       C  0.62910971  0.59941630  0.02262051     0.04200
C1973       C  0.62307694  0.66452245  0.03259507     0.38900
C1974       C  0.63755989  0.57709930  0.98655541     0.38900
C1975       C  0.63091868  0.57761355  0.03571139     0.37300
C1976       C  0.61816913  0.66200604  0.98310304     0.37300
N1977       N  0.63241592  0.56021280  0.04609755    -0.37500
N1978       N  0.61386661  0.67903674  0.97288369    -0.37500
N1979       N  0.64350249  0.55956666  0.97818688    -0.37000
N1980       N  0.62327753  0.68271765  0.04160784    -0.37000
C1981       C  0.30365842  0.82539337  0.53302313    -0.03600
C1982       C  0.29402751  0.84686788  0.54077085    -0.00800
C1983       C  0.30891498  0.86488796  0.54893733     0.04200
C1984       C  0.33355542  0.86218105  0.54767219    -0.03600
C1985       C  0.34307009  0.84032484  0.54085614    -0.00700
C1986       C  0.32813938  0.82192305  0.53377982     0.04200
C1987       C  0.26882603  0.85048901  0.54014720     0.38900
C1988       C  0.36803247  0.83598832  0.54313213     0.38900
C1989       C  0.33784062  0.79894618  0.52859006     0.37300
C1990       C  0.29883603  0.88585061  0.55931748     0.37300
N1991       N  0.34554392  0.78050785  0.52488921    -0.37500
N1992       N  0.29075874  0.90249581  0.56773573    -0.37500
N1993       N  0.38782578  0.83200890  0.54534560    -0.37000
N1994       N  0.24873993  0.85348287  0.53950992    -0.37000
C1995       C  0.21659699  0.81714572  0.44200876    -0.03600
C1996       C  0.20083091  0.81068331  0.42400392    -0.00800
C1997       C  0.19200308  0.82783311  0.40836149     0.04200
C1998       C  0.19851435  0.85168298  0.41090520    -0.03600
C1999       C  0.21245552  0.85830185  0.43030266    -0.00700
C2000       C  0.22213274  0.84107952  0.44525744     0.04200
C2001       C  0.19395546  0.78631977  0.42134155     0.38900
C2002       C  0.21484528  0.88281739  0.43655289     0.38900
C2003       C  0.23688975  0.84817316  0.46479625     0.37300
C2004       C  0.17633582  0.82081308  0.38955742     0.37300
N2005       N  0.24865339  0.85382925  0.48035978    -0.37500
N2006       N  0.16382831  0.81520014  0.37456772    -0.37500
N2007       N  0.21646084  0.90211765  0.44264514    -0.37000
N2008       N  0.18836774  0.76690316  0.41931045    -0.37000
C2009       C  0.18657644  0.79085486  0.56336758    -0.03600
C2010       C  0.19407477  0.80480622  0.58258858    -0.00800
C2011       C  0.17805865  0.81153041  0.60021105     0.04200
C2012       C  0.15428642  0.80463731  0.59880966    -0.03600
C2013       C  0.14628286  0.79296286  0.57851324    -0.00700
C2014       C  0.16229329  0.78584577  0.56099013     0.04200
C2015       C  0.21811139  0.81316305  0.58396184     0.38900
C2016       C  0.12134003  0.78970775  0.57473738     0.38900
C2017       C  0.15341526  0.77351949  0.54054450     0.37300
C2018       C  0.18627881  0.82533218  0.61999948     0.37300
N2019       N  0.14609342  0.76398759  0.52416932    -0.37500
N2020       N  0.19295010  0.83627675  0.63575515    -0.37500
N2021       N  0.10151642  0.78738356  0.57103237    -0.37000
N2022       N  0.23722668  0.81991496  0.58506634    -0.37000
C2023       C  0.31661126  0.72779390  0.45099371    -0.03600
C2024       C  0.31474224  0.70622350  0.43877682    -0.00800
C2025       C  0.33322857  0.69823668  0.42433406     0.04200
C2026       C  0.35460701  0.71082596  0.42298767    -0.03600
C2027       C  0.35730199  0.73121499  0.43683506    -0.00700
C2028       C  0.33811243  0.74029908  0.44976523     0.04200
C2029       C  0.29360769  0.69218896  0.44052657     0.38900
C2030       C  0.38017156  0.74208292  0.43915766     0.38900
C2031       C  0.34090916  0.76238088  0.46211502     0.37300
C2032       C  0.32969103  0.67738551  0.41010309     0.37300
N2033       N  0.34326311  0.78020501  0.47155674    -0.37500
N2034       N  0.32679970  0.66079584  0.39874713    -0.37500
N2035       N  0.39833059  0.75079743  0.44166931    -0.37000
N2036       N  0.27700770  0.68064274  0.44210641    -0.37000
C2037       C  0.18819152  0.69519417  0.47878100    -0.03600
C2038       C  0.16804546  0.69232305  0.49299834    -0.00800
C2039       C  0.14966432  0.67733472  0.48584026     0.04200
C2040       C  0.15205257  0.66356511  0.46536386    -0.03600
C2041       C  0.17230351  0.66625065  0.45125075    -0.00700
C2042       C  0.19021621  0.68205494  0.45786717     0.04200
C2043       C  0.16664071  0.70406778  0.51555045     0.38900
C2044       C  0.17486898  0.65240309  0.43002607     0.38900
C2045       C  0.21028321  0.68537453  0.44263243     0.37300
C2046       C  0.12816356  0.67640796  0.49939007     0.37300
N2047       N  0.22611763  0.68802643  0.43023010    -0.37500
N2048       N  0.11108934  0.67583722  0.51034295    -0.37500
N2049       N  0.17684503  0.64131985  0.41312035    -0.37000
N2050       N  0.16571531  0.71311334  0.53371128    -0.37000
C2051       C  0.27910935  0.70135913  0.56903317    -0.03600
C2052       C  0.27065317  0.70284921  0.59236382    -0.00800
C2053       C  0.27933334  0.68754772  0.60988987     0.04200
C2054       C  0.29578502  0.66987165  0.60415307    -0.03600
C2055       C  0.30445818  0.66857168  0.58091374    -0.00700
C2056       C  0.29625636  0.68422039  0.56351688     0.04200
C2057       C  0.25257668  0.71980689  0.59840178     0.38900
C2058       C  0.32173729  0.65087098  0.57469339     0.38900
C2059       C  0.30616540  0.68307680  0.54007623     0.37300
C2060       C  0.27237200  0.69123284  0.63405641     0.37300
N2061       N  0.31409366  0.68217914  0.52140315    -0.37500
N2062       N  0.26673314  0.69502265  0.65318554    -0.37500
N2063       N  0.33546224  0.63672592  0.56971473    -0.37000
N2064       N  0.23814251  0.73327603  0.60326432    -0.37000
C2065       C  0.81120476  0.44393750  0.22550742    -0.03600
C2066       C  0.83474125  0.44597931  0.23297628    -0.00800
C2067       C  0.85232204  0.43171514  0.22285757     0.04200
C2068       C  0.84634118  0.41451267  0.20600828    -0.03600
C2069       C  0.82279732  0.41291304  0.19816814    -0.00700
C2070       C  0.80532344  0.42741557  0.20800967     0.04200
C2071       C  0.84104828  0.46336425  0.25049733     0.38900
C2072       C  0.81628431  0.39598725  0.18027345     0.38900
C2073       C  0.78103851  0.42468145  0.20074575     0.37300
C2074       C  0.87669585  0.43622452  0.22846449     0.37300
N2075       N  0.76165491  0.42251860  0.19506735    -0.37500
N2076       N  0.89600068  0.44062753  0.23293308    -0.37500
N2077       N  0.81101455  0.38258942  0.16594807    -0.37000
N2078       N  0.84608866  0.47718356  0.26450390    -0.37000
C2079       C  0.83543252  0.54377348  0.35718440    -0.03600
C2080       C  0.83545527  0.55409251  0.33455885    -0.00800
C2081       C  0.81955024  0.54637083  0.31722063     0.04200
C2082       C  0.80373880  0.52793519  0.32212768    -0.03600
C2083       C  0.80380783  0.51753523  0.34466309    -0.00700
C2084       C  0.81895707  0.52601294  0.36232256     0.04200
C2085       C  0.85221270  0.57238423  0.32881642     0.38900
C2086       C  0.78778241  0.49848733  0.35001618     0.38900
C2087       C  0.81602425  0.51769891  0.38616127     0.37300
C2088       C  0.82011598  0.55688381  0.29401539     0.37300
N2089       N  0.81279064  0.51101892  0.40505291    -0.37500
N2090       N  0.82056223  0.56529447  0.27553177    -0.37500
N2091       N  0.77517064  0.48316727  0.35427020    -0.37000
N2092       N  0.86559772  0.58692096  0.32419629    -0.37000
C2093       C  0.77404695  0.56330872  0.20099666    -0.03600
C2094       C  0.79227268  0.55789481  0.18497827    -0.00800
C2095       C  0.80095558  0.57528742  0.16968455     0.04200
C2096       C  0.79204164  0.59845900  0.17069451    -0.03600
C2097       C  0.77497670  0.60415319  0.18767557    -0.00700
C2098       C  0.76504488  0.58642993  0.20172411     0.04200
C2099       C  0.80242717  0.53449957  0.18429297     0.38900
C2100       C  0.76892871  0.62844057  0.19222141     0.38900
C2101       C  0.74443736  0.59181215  0.21560186     0.37300
C2102       C  0.81886039  0.56911397  0.15263661     0.37300
N2103       N  0.72759342  0.59622692  0.22602181    -0.37500
N2104       N  0.83307687  0.56412059  0.13902024    -0.37500
N2105       N  0.76430256  0.64768594  0.19679360    -0.37000
N2106       N  0.81048091  0.51583970  0.18370214    -0.37000
C2107       C  0.71806657  0.43025637  0.30992437    -0.03600
C2108       C  0.70158077  0.43238111  0.32824356    -0.00800
C2109       C  0.69425306  0.41226333  0.34060199     0.04200
C2110       C  0.70405660  0.39006210  0.33524533    -0.03600
C2111       C  0.71954088  0.38784136  0.31607372    -0.00700
C2112       C  0.72675081  0.40790239  0.30363814     0.04200
C2113       C  0.69310980  0.45535933  0.33524376     0.38900
C2114       C  0.72673085  0.36489049  0.30781930     0.38900
C2115       C  0.74257203  0.40543914  0.28379444     0.37300
C2116       C  0.67698786  0.41454770  0.35918732     0.37300
N2117       N  0.75516019  0.40358402  0.26796994    -0.37500
N2118       N  0.66316588  0.41633513  0.37395224    -0.37500
N2119       N  0.73244168  0.34692789  0.30024791    -0.37000
N2120       N  0.68649724  0.47364646  0.34113985    -0.37000
C2121       C  0.68914139  0.46666840  0.19369968    -0.03600
C2122       C  0.67198398  0.44945113  0.19891244    -0.00800
C2123       C  0.65554173  0.44261295  0.18166572     0.04200
C2124       C  0.65646117  0.45244725  0.15894084    -0.03600
C2125       C  0.67507007  0.46764868  0.15305066    -0.00700
C2126       C  0.69071608  0.47551382  0.17050899     0.04200
C2127       C  0.67125385  0.43854146  0.22191129     0.38900
C2128       C  0.67814392  0.47550308  0.12908638     0.38900
C2129       C  0.70757154  0.49369495  0.16466949     0.37300
C2130       C  0.63705798  0.42614992  0.18754882     0.37300
N2131       N  0.72089557  0.50827482  0.16000186    -0.37500
N2132       N  0.62225695  0.41307025  0.19218887    -0.37500
N2133       N  0.68146894  0.48196411  0.11015190    -0.37000
N2134       N  0.67067456  0.42976479  0.24022048    -0.37000
C2135       C  0.64114381  0.58344346  0.30252307    -0.03600
C2136       C  0.64005363  0.55901863  0.30649849    -0.00800
C2137       C  0.65886350  0.54433197  0.29977465     0.04200
C2138       C  0.67968703  0.55403357  0.29000415    -0.03600
C2139       C  0.68157301  0.57889451  0.28865874    -0.00700
C2140       C  0.66233480  0.59338229  0.29465227     0.04200
C2141       C  0.61942935  0.54883353  0.31745673     0.38900
C2142       C  0.70333327  0.59003509  0.28167368     0.38900
C2143       C  0.66506337  0.61868500  0.29434836     0.37300
C2144       C  0.65655754  0.51922959  0.30348458     0.37300
N2145       N  0.66787690  0.63878945  0.29439828    -0.37500
N2146       N  0.65438312  0.49923921  0.30633831    -0.37500
N2147       N  0.72071141  0.59924125  0.27669261    -0.37000
N2148       N  0.60304639  0.54068851  0.32623721    -0.37000
C2149       C  0.15694058  0.15349805  0.95119779    -0.03600
C2150       C  0.17711504  0.14684592  0.96393621    -0.00800
C2151       C  0.19327850  0.16392754  0.97173266     0.04200
C2152       C  0.19031207  0.18791510  0.96560571    -0.03600
C2153       C  0.17037981  0.19444515  0.95214782    -0.00700
C2154       C  0.15394448  0.17732063  0.94489577     0.04200
C2155       C  0.18271273  0.12223725  0.96711593     0.38900
C2156       C  0.16699737  0.21865450  0.94494773     0.38900
C2157       C  0.13424750  0.18419711  0.93024872     0.37300
C2158       C  0.21279010  0.15655149  0.98643908     0.37300
N2159       N  0.11858996  0.18970053  0.91850989    -0.37500
N2160       N  0.22829026  0.15057731  0.99816540    -0.37500
N2161       N  0.16421817  0.23795581  0.93922157    -0.37000
N2162       N  0.18826139  0.10282409  0.96935137    -0.37000
C2163       C  0.19437287  0.27777138  0.05709290    -0.03600
C2164       C  0.17652196  0.29418501  0.05120864    -0.00800
C2165       C  0.16136915  0.30322834  0.06867543     0.04200
C2166       C  0.16299816  0.29533983  0.09217899    -0.03600
C2167       C  0.18048582  0.27874531  0.09803575    -0.00700
C2168       C  0.19570355  0.26969844  0.08059656     0.04200
C2169       C  0.17319259  0.30172638  0.02712045     0.38900
C2170       C  0.18401525  0.27190356  0.12226491     0.38900
C2171       C  0.21186220  0.25102434  0.08680796     0.37300
C2172       C  0.14379161  0.32059115  0.06224195     0.37300
N2173       N  0.22444175  0.23588539  0.09185325    -0.37500
N2174       N  0.12978157  0.33439679  0.05707542    -0.37500
N2175       N  0.18759230  0.26631601  0.14145647    -0.37000
N2176       N  0.16990719  0.30750245  0.00792912    -0.37000
C2177       C  0.29625149  0.14397944  0.07828399    -0.03600
C2178       C  0.28950595  0.16563396  0.08821883    -0.00800
C2179       C  0.28448233  0.18516270  0.07373233     0.04200
C2180       C  0.28566823  0.18315245  0.04887799    -0.03600
C2181       C  0.29492894  0.16203041  0.03923836    -0.00700
C2182       C  0.30022965  0.14271552  0.05385187     0.04200
C2183       C  0.28937562  0.16851453  0.11349978     0.38900
C2184       C  0.30013522  0.16017301  0.01435572     0.38900
C2185       C  0.30974362  0.12140864  0.04354118     0.37300
C2186       C  0.27915840  0.20744252  0.08486878     0.37300
N2187       N  0.31738174  0.10447981  0.03528441    -0.37500
N2188       N  0.27553555  0.22521292  0.09402778    -0.37500
N2189       N  0.30441469  0.15861100  0.99456194    -0.37000
N2190       N  0.28953628  0.17157362  0.13356733    -0.37000
C2191       C  0.31581117  0.30808252  0.02347450    -0.03600
C2192       C  0.31281497  0.33215500  0.01834122    -0.00800
C2193       C  0.32902468  0.34883051  0.02684513     0.04200
C2194       C  0.34876258  0.34152278  0.03998641    -0.03600
C2195       C  0.35137063  0.31747005  0.04566889    -0.00700
C2196       C  0.33522356  0.30078455  0.03705432     0.04200
C2197       C  0.29250771  0.33990138  0.00499415     0.38900
C2198       C  0.37064067  0.30981562  0.06049408     0.38900
C2199       C  0.33911807  0.27597820  0.04136419     0.37300
C2200       C  0.32406341  0.37358533  0.02377949     0.37300
N2201       N  0.34233325  0.25617555  0.04460572    -0.37500
N2202       N  0.31921258  0.39318015  0.02150027    -0.37500
N2203       N  0.38598692  0.30373219  0.07235840    -0.37000
N2204       N  0.27631707  0.34606508  0.99435575    -0.37000
C2205       C  0.34357858  0.20554357  0.89225496    -0.03600
C2206       C  0.31932864  0.20032526  0.89073401    -0.00800
C2207       C  0.30375248  0.20782301  0.90848477     0.04200
C2208       C  0.31228764  0.22006200  0.92825178    -0.03600
C2209       C  0.33656274  0.22458245  0.93022691    -0.00700
C2210       C  0.35217923  0.21704160  0.91249643     0.04200
C2211       C  0.31024141  0.18732676  0.87080845     0.38900
C2212       C  0.34561956  0.23619303  0.95101820     0.38900
C2213       C  0.37720600  0.21935529  0.91626288     0.37300
C2214       C  0.27875272  0.20367041  0.90599028     0.37300
N2215       N  0.39706623  0.22099038  0.92014322    -0.37500
N2216       N  0.25879715  0.20048744  0.90399127    -0.37500
N2217       N  0.35284943  0.24540334  0.96761602    -0.37000
N2218       N  0.30297070  0.17695762  0.85492962    -0.37000
C2219       C  0.20664512  0.34408698  0.90207442    -0.03600
C2220       C  0.20125413  0.34609576  0.92620592    -0.00800
C2221       C  0.21035049  0.32972479  0.94234832     0.04200
C2222       C  0.22344580  0.31030465  0.93435094    -0.03600
C2223       C  0.22815750  0.30776839  0.91016914    -0.00700
C2224       C  0.21953850  0.32447660  0.89403559     0.04200
C2225       C  0.18663020  0.36522667  0.93457898     0.38900
C2226       C  0.24166481  0.28780062  0.90185329     0.38900
C2227       C  0.22242998  0.32039346  0.86910989     0.37300
C2228       C  0.20785842  0.33391519  0.96732224     0.37300
N2229       N  0.22454016  0.31641533  0.84931329    -0.37500
N2230       N  0.20641076  0.33767806  0.98721883    -0.37500
N2231       N  0.25253228  0.27193836  0.89525221    -0.37000
N2232       N  0.17495958  0.38046872  0.94126103    -0.37000
C2233       C  0.37879645  0.46720902  0.87471898    -0.03600
C2234       C  0.39933876  0.48033880  0.87058583    -0.00800
C2235       C  0.39868523  0.50502641  0.87184635     0.04200
C2236       C  0.37756559  0.51675480  0.87763475    -0.03600
C2237       C  0.35717669  0.50347122  0.88229197    -0.00700
C2238       C  0.35773042  0.47881923  0.88063845     0.04200
C2239       C  0.42098473  0.46848654  0.86414590     0.38900
C2240       C  0.33582332  0.51499033  0.88989846     0.38900
C2241       C  0.33676924  0.46532225  0.88584935     0.37300
C2242       C  0.41954216  0.51824904  0.86594193     0.37300
N2243       N  0.32010226  0.45451238  0.88999679    -0.37500
N2244       N  0.43638890  0.52829286  0.86075030    -0.37500
N2245       N  0.31863773  0.52367369  0.89637877    -0.37000
N2246       N  0.43822878  0.45902880  0.85901679    -0.37000
C2247       C  0.47006303  0.37391555  0.86927397    -0.03600
C2248       C  0.48389221  0.38021764  0.84977812    -0.00800
C2249       C  0.50858520  0.37936852  0.85135688     0.04200
C2250       C  0.51957575  0.37205023  0.87239042    -0.03600
C2251       C  0.50561015  0.36559916  0.89179533    -0.00700
C2252       C  0.48097175  0.36643671  0.89021352     0.04200
C2253       C  0.47271789  0.38813217  0.82828286     0.38900
C2254       C  0.51643148  0.35685361  0.91307330     0.38900
C2255       C  0.46676490  0.35854462  0.90983259     0.37300
C2256       C  0.52256674  0.38677049  0.83150405     0.37300
N2257       N  0.45539723  0.35212757  0.92537443    -0.37500
N2258       N  0.53326525  0.39305286  0.81544482    -0.37500
N2259       N  0.52447036  0.34940424  0.93017960    -0.37000
N2260       N  0.46382541  0.39444452  0.81113194    -0.37000
C2261       C  0.28831923  0.37707166  0.87231370    -0.03600
C2262       C  0.27561714  0.37191450  0.85169289    -0.00800
C2263       C  0.25087889  0.37170945  0.85202319     0.04200
C2264       C  0.23857350  0.37689843  0.87292317    -0.03600
C2265       C  0.25139734  0.38204490  0.89356590    -0.00700
C2266       C  0.27615280  0.38190789  0.89331024     0.04200
C2267       C  0.28806869  0.36595012  0.83027758     0.38900
C2268       C  0.23934440  0.38890739  0.91483973     0.38900
C2269       C  0.28911524  0.38757775  0.91451682     0.37300
C2270       C  0.23821827  0.36532553  0.83093900     0.37300
N2271       N  0.29941661  0.39209247  0.93143655    -0.37500
N2272       N  0.22859343  0.35991029  0.81389513    -0.37500
N2273       N  0.23045317  0.39499896  0.93204639    -0.37000
N2274       N  0.29807753  0.36115224  0.81327100    -0.37000
C2275       C  0.37725506  0.38194355  0.77831278    -0.03600
C2276       C  0.38180288  0.40338927  0.76682633    -0.00800
C2277       C  0.38284786  0.40426017  0.74212055     0.04200
C2278       C  0.37892821  0.38377687  0.72863835    -0.03600
C2279       C  0.37396733  0.36240612  0.74022716    -0.00700
C2280       C  0.37314941  0.36150155  0.76493884     0.04200
C2281       C  0.38629431  0.42443797  0.78046400     0.38900
C2282       C  0.36865366  0.34147000  0.72682373     0.38900
C2283       C  0.36716712  0.33966594  0.77662071     0.37300
C2284       C  0.38925566  0.42605134  0.73072001     0.37300
N2285       N  0.36229267  0.32229934  0.78594574    -0.37500
N2286       N  0.39469599  0.44357290  0.72203157    -0.37500
N2287       N  0.36406674  0.32457739  0.71652870    -0.37000
N2288       N  0.38986145  0.44121248  0.79134803    -0.37000
C2289       C  0.38259401  0.37315844  0.96014460    -0.03600
C2290       C  0.37636532  0.39359173  0.97263147    -0.00800
C2291       C  0.37547779  0.39326568  0.99732161     0.04200
C2292       C  0.38169128  0.37274246  0.00984600    -0.03600
C2293       C  0.38881381  0.35255529  0.99726041    -0.00700
C2294       C  0.38881324  0.35261165  0.97248867     0.04200
C2295       C  0.36995819  0.41480648  0.95997331     0.38900
C2296       C  0.39710357  0.33197276  0.00965601     0.38900
C2297       C  0.39581305  0.33170703  0.95970328     0.37300
C2298       C  0.36678070  0.41379415  0.00948390     0.37300
N2299       N  0.40137810  0.31500482  0.94955137    -0.37500
N2300       N  0.35920497  0.43049108  0.01823036    -0.37500
N2301       N  0.40424315  0.31539176  0.01899081    -0.37000
N2302       N  0.36493084  0.43167755  0.94981385    -0.37000
C2303       C  0.37646776  0.28720462  0.86342762    -0.03600
C2304       C  0.35524087  0.27602432  0.85751629    -0.00800
C2305       C  0.35431771  0.25138137  0.85603506     0.04200
C2306       C  0.37449325  0.23774326  0.86093350    -0.03600
C2307       C  0.39573734  0.24911404  0.86686992    -0.00700
C2308       C  0.39673297  0.27377293  0.86797195     0.04200
C2309       C  0.33450399  0.28995313  0.85227328     0.38900
C2310       C  0.41644311  0.23567433  0.87293072     0.38900
C2311       C  0.41841085  0.28536571  0.87471454     0.37300
C2312       C  0.33284356  0.24028023  0.84826381     0.37300
N2313       N  0.43560726  0.29470452  0.88012716    -0.37500
N2314       N  0.31553388  0.23206122  0.84157198    -0.37500
N2315       N  0.43333438  0.22571726  0.87828612    -0.37000
N2316       N  0.31800651  0.30109070  0.84810969    -0.37000
C2317       C  0.22368936  0.44299422  0.81073601    -0.03600
C2318       C  0.23060091  0.44431284  0.83458399    -0.00800
C2319       C  0.22129493  0.42852570  0.85115866     0.04200
C2320       C  0.20656230  0.41004315  0.84385973    -0.03600
C2321       C  0.19914856  0.40902633  0.82017723    -0.00700
C2322       C  0.20743223  0.42558191  0.80376877     0.04200
C2323       C  0.24766324  0.46163143  0.84221316     0.38900
C2324       C  0.18303145  0.39085456  0.81252946     0.38900
C2325       C  0.19839349  0.42518340  0.77993761     0.37300
C2326       C  0.22530020  0.43276274  0.87590951     0.37300
N2327       N  0.19108184  0.42495359  0.76098103    -0.37500
N2328       N  0.22828100  0.43713222  0.89551159    -0.37500
N2329       N  0.17018895  0.37638038  0.80639407    -0.37000
N2330       N  0.26129464  0.47537290  0.84834238    -0.37000
C2331       C  0.34671647  0.54914550  0.84676859    -0.03600
C2332       C  0.32287907  0.55585845  0.84851245    -0.00800
C2333       C  0.30646801  0.54816165  0.83169362     0.04200
C2334       C  0.31352197  0.53290983  0.81336356    -0.03600
C2335       C  0.33738021  0.52607954  0.81177662    -0.00700
C2336       C  0.35401051  0.53509732  0.82770339     0.04200
C2337       C  0.31499985  0.57045424  0.86786920     0.38900
C2338       C  0.34491372  0.50914221  0.79425775     0.38900
C2339       C  0.37874407  0.53133456  0.82314636     0.37300
C2340       C  0.28243846  0.55659376  0.83306089     0.37300
N2341       N  0.39830428  0.52846128  0.81852030    -0.37500
N2342       N  0.26329946  0.56334804  0.83414331    -0.37500
N2343       N  0.35096462  0.49551261  0.78045205    -0.37000
N2344       N  0.30865573  0.58199912  0.88333325    -0.37000
C2345       C  0.19206219  0.56454268  0.78425742    -0.03600
C2346       C  0.19423103  0.58881509  0.77990950    -0.00800
C2347       C  0.17825234  0.60475677  0.79008123     0.04200
C2348       C  0.15888330  0.59645021  0.80305202    -0.03600
C2349       C  0.15721838  0.57221850  0.80817437    -0.00700
C2350       C  0.17380634  0.55633321  0.79886399     0.04200
C2351       C  0.21339412  0.59749609  0.76559448     0.38900
C2352       C  0.13840552  0.56353963  0.82295168     0.38900
C2353       C  0.17168874  0.53142430  0.80378395     0.37300
C2354       C  0.18329373  0.62964959  0.78932980     0.37300
N2355       N  0.17003680  0.51156314  0.80771511    -0.37500
N2356       N  0.18821835  0.64933947  0.78923493    -0.37500
N2357       N  0.12340146  0.55659097  0.83471875    -0.37000
N2358       N  0.22860096  0.60441766  0.75407750    -0.37000
C2359       C  0.19068381  0.47504093  0.69280461    -0.03600
C2360       C  0.16708352  0.48234995  0.69488244    -0.00800
C2361       C  0.14982991  0.47323948  0.67961975     0.04200
C2362       C  0.15621326  0.45755202  0.66148039    -0.03600
C2363       C  0.17976777  0.44969802  0.65993572    -0.00700
C2364       C  0.19686814  0.45832916  0.67557829     0.04200
C2365       C  0.16033613  0.49844839  0.71345955     0.38900
C2366       C  0.18671304  0.43319950  0.64179070     0.38900
C2367       C  0.22102370  0.45040950  0.67351353     0.37300
C2368       C  0.12536912  0.47875862  0.68384212     0.37300
N2369       N  0.24026305  0.44404823  0.67195563    -0.37500
N2370       N  0.10597228  0.48316758  0.68793760    -0.37500
N2371       N  0.19231909  0.42010192  0.62730723    -0.37000
N2372       N  0.15498864  0.51125486  0.72829944    -0.37000
C2373       C  0.31407158  0.44692078  0.71641875    -0.03600
C2374       C  0.31343832  0.42292195  0.72284604    -0.00800
C2375       C  0.32881137  0.40669408  0.71224756     0.04200
C2376       C  0.34685854  0.41452717  0.69724392    -0.03600
C2377       C  0.34739938  0.43845572  0.69052940    -0.00700
C2378       C  0.33079796  0.45444959  0.69967506     0.04200
C2379       C  0.29768476  0.41486377  0.74115982     0.38900
C2380       C  0.36533528  0.44688199  0.67454800     0.38900
C2381       C  0.33071104  0.47853114  0.69132827     0.37300
C2382       C  0.32465341  0.38181865  0.71543110     0.37300
N2383       N  0.33062836  0.49768987  0.68456276    -0.37500
N2384       N  0.32038367  0.36211726  0.71781285    -0.37500
N2385       N  0.37963998  0.45363972  0.66183642    -0.37000
N2386       N  0.28532680  0.40845512  0.75593071    -0.37000
C2387       C  0.28325293  0.56898293  0.69350990    -0.03600
C2388       C  0.27995424  0.56689775  0.66907132    -0.00800
C2389       C  0.28900046  0.58414878  0.65380554     0.04200
C2390       C  0.30034960  0.60420409  0.66293395    -0.03600
C2391       C  0.30498853  0.60546496  0.68729555    -0.00700
C2392       C  0.29625882  0.58803351  0.70253787     0.04200
C2393       C  0.26800601  0.54652650  0.65956600     0.38900
C2394       C  0.31853643  0.62479416  0.69681562     0.38900
C2395       C  0.30002593  0.59008314  0.72765312     0.37300
C2396       C  0.28858251  0.58004795  0.62872523     0.37300
N2397       N  0.30295670  0.59167375  0.74769084    -0.37500
N2398       N  0.28868754  0.57599383  0.60883206    -0.37500
N2399       N  0.32936263  0.64017264  0.70446291    -0.37000
N2400       N  0.25850350  0.53026592  0.65198297    -0.37000
C2401       C  0.43822383  0.22217871  0.79576996    -0.03600
C2402       C  0.41466019  0.22922966  0.79270040    -0.00800
C2403       C  0.39713516  0.22117027  0.80821340     0.04200
C2404       C  0.40310179  0.20614143  0.82704366    -0.03600
C2405       C  0.42654499  0.19814056  0.82929223    -0.00700
C2406       C  0.44408760  0.20645186  0.81397192     0.04200
C2407       C  0.40832231  0.24405830  0.77294252     0.38900
C2408       C  0.43283326  0.18177350  0.84778784     0.38900
C2409       C  0.46836284  0.19953096  0.81751714     0.37300
C2410       C  0.37284087  0.22716717  0.80367367     0.37300
N2411       N  0.48774507  0.19412844  0.82038408    -0.37500
N2412       N  0.35360242  0.23198457  0.79926759    -0.37500
N2413       N  0.43784924  0.16879495  0.86259790    -0.37000
N2414       N  0.40336038  0.25576613  0.75708814    -0.37000
C2415       C  0.53330601  0.30892768  0.80617052    -0.03600
C2416       C  0.55024873  0.32635648  0.80129972    -0.00800
C2417       C  0.55875039  0.34100151  0.81943321     0.04200
C2418       C  0.55036896  0.33846405  0.84268086    -0.03600
C2419       C  0.53454630  0.32006818  0.84775155    -0.00700
C2420       C  0.52561519  0.30577597  0.82952999     0.04200
C2421       C  0.55843357  0.32977685  0.77743478     0.38900
C2422       C  0.52896618  0.31434448  0.87186504     0.38900
C2423       C  0.50917638  0.28713268  0.83501624     0.37300
C2424       C  0.57594210  0.35895842  0.81400219     0.37300
N2425       N  0.49605856  0.27226958  0.83935881    -0.37500
N2426       N  0.58962498  0.37330325  0.80966999    -0.37500
N2427       N  0.52464850  0.30888306  0.89092988    -0.37000
N2428       N  0.56496372  0.33249515  0.75840276    -0.37000
C2429       C  0.56116163  0.19037530  0.76524142    -0.03600
C2430       C  0.57503577  0.19449341  0.78539356    -0.00800
C2431       C  0.59060137  0.17709120  0.79361633     0.04200
C2432       C  0.59275887  0.15545576  0.78164162    -0.03600
C2433       C  0.57870964  0.15117355  0.76164055    -0.00700
C2434       C  0.56322808  0.16869688  0.75326344     0.04200
C2435       C  0.57276886  0.21638948  0.79824516     0.38900
C2436       C  0.57983220  0.12862008  0.74988134     0.38900
C2437       C  0.54985848  0.16457003  0.73197407     0.37300
C2438       C  0.60478780  0.18164654  0.81429421     0.37300
N2439       N  0.53928884  0.16124339  0.71494265    -0.37500
N2440       N  0.61609299  0.18525263  0.83078080    -0.37500
N2441       N  0.58071383  0.11074779  0.74026969    -0.37000
N2442       N  0.57093479  0.23386469  0.80844622    -0.37000
C2443       C  0.45379379  0.16908681  0.63676093    -0.03600
C2444       C  0.44475868  0.16667310  0.65973714    -0.00800
C2445       C  0.45282281  0.18135460  0.67802581     0.04200
C2446       C  0.46999255  0.19871785  0.67352406    -0.03600
C2447       C  0.47844981  0.20153513  0.65030483    -0.00700
C2448       C  0.46984011  0.18728306  0.63197972     0.04200
C2449       C  0.42701681  0.14909269  0.66461677     0.38900
C2450       C  0.49649600  0.21874814  0.64513010     0.38900
C2451       C  0.47607130  0.19284305  0.60797626     0.37300
C2452       C  0.44280177  0.17898581  0.70130748     0.37300
N2453       N  0.48088594  0.19829433  0.58903051    -0.37500
N2454       N  0.43477256  0.17710005  0.71986027    -0.37500
N2455       N  0.51090491  0.23240898  0.64092690    -0.37000
N2456       N  0.41287781  0.13506533  0.66850107    -0.37000
C2457       C  0.56293257  0.28512122  0.68034986    -0.03600
C2458       C  0.58671744  0.27799494  0.68238957    -0.00800
C2459       C  0.60331765  0.28497200  0.66546057     0.04200
C2460       C  0.59620646  0.29795374  0.64561696    -0.03600
C2461       C  0.57272410  0.30590098  0.64399524    -0.00700
C2462       C  0.55625539  0.29976724  0.66136646     0.04200
C2463       C  0.59432870  0.26304622  0.70160731     0.38900
C2464       C  0.56525391  0.32014760  0.62419282     0.38900
C2465       C  0.53260178  0.30922179  0.65987561     0.37300
C2466       C  0.62795893  0.28009669  0.66952438     0.37300
N2467       N  0.51379296  0.31684083  0.65865185    -0.37500
N2468       N  0.64749141  0.27634695  0.67364281    -0.37500
N2469       N  0.55924966  0.33144386  0.60840003    -0.37000
N2470       N  0.60047467  0.25117538  0.71692070    -0.37000
C2471       C  0.44362275  0.31968899  0.71220788    -0.03600
C2472       C  0.44511190  0.34275827  0.72117209    -0.00800
C2473       C  0.42998627  0.36049564  0.71266272     0.04200
C2474       C  0.41228680  0.35504739  0.69614941    -0.03600
C2475       C  0.41125167  0.33205029  0.68672190    -0.00700
C2476       C  0.42677933  0.31448989  0.69475834     0.04200
C2477       C  0.46275153  0.34849607  0.73863748     0.38900
C2478       C  0.39385152  0.32612849  0.66906380     0.38900
C2479       C  0.42474097  0.29075563  0.68567483     0.37300
C2480       C  0.43406702  0.38462863  0.71952884     0.37300
N2481       N  0.42310212  0.27183546  0.67846098    -0.37500
N2482       N  0.43809177  0.40377963  0.72493365    -0.37500
N2483       N  0.38007810  0.32135868  0.65491302    -0.37000
N2484       N  0.47674567  0.35306288  0.75263797    -0.37000
C2485       C  0.43026256  0.80653480  0.22076780    -0.03600
C2486       C  0.40800194  0.80637742  0.23178232    -0.00800
C2487       C  0.38939381  0.82002558  0.22274615     0.04200
C2488       C  0.39343842  0.83619377  0.20441500    -0.03600
C2489       C  0.41597671  0.83695651  0.19386811    -0.00700
C2490       C  0.43408190  0.82187331  0.20165861     0.04200
C2491       C  0.40398262  0.79215539  0.25250027     0.38900
C2492       C  0.42092989  0.85373418  0.17535287     0.38900
C2493       C  0.45701092  0.82301652  0.19062731     0.37300
C2494       C  0.36580255  0.81570967  0.23114460     0.37300
N2495       N  0.47526921  0.82395750  0.18179670    -0.37500
N2496       N  0.34719983  0.81130710  0.23794656    -0.37500
N2497       N  0.42491996  0.86709419  0.16059139    -0.37000
N2498       N  0.40083284  0.78135732  0.26939286    -0.37000
C2499       C  0.52470632  0.80183551  0.31307530    -0.03600
C2500       C  0.51684758  0.79743251  0.33617279    -0.00800
C2501       C  0.52525113  0.81104426  0.35506833     0.04200
C2502       C  0.54113051  0.82958749  0.35099473    -0.03600
C2503       C  0.54962056  0.83343631  0.32797808    -0.00700
C2504       C  0.54091374  0.82006316  0.30901254     0.04200
C2505       C  0.50034761  0.77853623  0.34059906     0.38900
C2506       C  0.56711415  0.85141378  0.32370020     0.38900
C2507       C  0.54732895  0.82620317  0.28518528     0.37300
C2508       C  0.51890693  0.80458466  0.37880521     0.37300
N2509       N  0.55209350  0.83158249  0.26620226    -0.37500
N2510       N  0.51390080  0.79851724  0.39751227    -0.37500
N2511       N  0.58103463  0.86578695  0.32032100    -0.37000
N2512       N  0.48710675  0.76355395  0.34407001    -0.37000
C2513       C  0.55529926  0.77820006  0.18909447    -0.03600
C2514       C  0.57556205  0.79039022  0.19707310    -0.00800
C2515       C  0.59200628  0.79948176  0.18088273     0.04200
C2516       C  0.58901714  0.79588440  0.15656591    -0.03600
C2517       C  0.56829469  0.78512173  0.14846732    -0.00700
C2518       C  0.55184922  0.77580232  0.16449388     0.04200
C2519       C  0.57969714  0.79400543  0.22193052     0.38900
C2520       C  0.56262604  0.78558988  0.12368185     0.38900
C2521       C  0.53165139  0.76330959  0.15528637     0.37300
C2522       C  0.61179231  0.81313389  0.18930298     0.37300
N2523       N  0.51558365  0.75338625  0.14782357    -0.37500
N2524       N  0.62747871  0.82414674  0.19600124    -0.37500
N2525       N  0.55716826  0.78640386  0.10414022    -0.37000
N2526       N  0.58339114  0.79677364  0.24170792    -0.37000
C2527       C  0.41063963  0.70502803  0.35467008    -0.03600
C2528       C  0.39941098  0.71298207  0.33397840    -0.00800
C2529       C  0.41277628  0.71868250  0.31390319     0.04200
C2530       C  0.43739723  0.71657836  0.31436038    -0.03600
C2531       C  0.44853417  0.70710641  0.33434456    -0.00700
C2532       C  0.43519373  0.70095443  0.35426371     0.04200
C2533       C  0.37404885  0.71354077  0.33249664     0.38900
C2534       C  0.47383128  0.70398105  0.33451201     0.38900
C2535       C  0.44691154  0.69059113  0.37438403     0.37300
C2536       C  0.40114388  0.72534400  0.29225242     0.37300
N2537       N  0.45625934  0.68223707  0.39038343    -0.37500
N2538       N  0.39183246  0.73014222  0.27484347    -0.37500
N2539       N  0.49399527  0.70148556  0.33461720    -0.37000
N2540       N  0.35384344  0.71373679  0.33052027    -0.37000
C2541       C  0.45863070  0.68855100  0.18538629    -0.03600
C2542       C  0.45955290  0.66380439  0.18884429    -0.00800
C2543       C  0.45194356  0.64830637  0.17104076     0.04200
C2544       C  0.44365214  0.65707703  0.14948257    -0.03600
C2545       C  0.44001822  0.68145271  0.14700347    -0.00700
C2546       C  0.44790236  0.69715956  0.16453416     0.04200
C2547       C  0.46805514  0.65384188  0.21069731     0.38900
C2548       C  0.42775065  0.69039114  0.12652205     0.38900
C2549       C  0.44410018  0.72213905  0.16120254     0.37300
C2550       C  0.45065240  0.62332144  0.17574747     0.37300
N2551       N  0.44102919  0.74204184  0.15845287    -0.37500
N2552       N  0.44903957  0.60354443  0.18005372    -0.37500
N2553       N  0.41790130  0.69749520  0.11022251    -0.37000
N2554       N  0.47443674  0.64565863  0.22816975    -0.37000
C2555       C  0.54890369  0.68007158  0.27673267    -0.03600
C2556       C  0.56228876  0.68357635  0.29732584    -0.00800
C2557       C  0.57627916  0.66524371  0.30640685     0.04200
C2558       C  0.57608929  0.64277534  0.29572400    -0.03600
C2559       C  0.56134954  0.63887225  0.27618406    -0.00700
C2560       C  0.54887140  0.65769447  0.26598904     0.04200
C2561       C  0.56101472  0.70577287  0.30979378     0.38900
C2562       C  0.55759926  0.61528724  0.26744468     0.38900
C2563       C  0.53678562  0.65414908  0.24386094     0.37300
C2564       C  0.59131607  0.66983505  0.32646413     0.37300
N2565       N  0.52756412  0.65130794  0.22598958    -0.37500
N2566       N  0.60335087  0.67357029  0.34239962    -0.37500
N2567       N  0.55388507  0.59658298  0.26046831    -0.37000
N2568       N  0.55983413  0.72340279  0.31982457    -0.37000
C2569       C  0.06009698  0.05972305  0.96716451    -0.03600
C2570       C  0.08084718  0.05135166  0.95605593    -0.00800
C2571       C  0.09757313  0.06729228  0.94706306     0.04200
C2572       C  0.09413036  0.09170717  0.94941603    -0.03600
C2573       C  0.07281499  0.10006057  0.95872093    -0.00700
C2574       C  0.05633646  0.08435909  0.96838930     0.04200
C2575       C  0.08510838  0.02636077  0.95337102     0.38900
C2576       C  0.06660472  0.12460166  0.95617567     0.38900
C2577       C  0.03586041  0.09397459  0.98014363     0.37300
C2578       C  0.11812641  0.05851078  0.93482769     0.37300
N2579       N  0.01960401  0.10173095  0.98954981    -0.37500
N2580       N  0.13446234  0.05148800  0.92500050    -0.37500
N2581       N  0.06075227  0.14387820  0.95354367    -0.37000
N2582       N  0.08866967  0.00645820  0.95127611    -0.37000
C2583       C  0.96671558  0.06720592  0.05658607    -0.03600
C2584       C  0.96970824  0.06617270  0.08128889    -0.00800
C2585       C  0.96053488  0.08408311  0.09580691     0.04200
C2586       C  0.94962839  0.10404031  0.08589456    -0.03600
C2587       C  0.94587777  0.10477348  0.06139993    -0.00700
C2588       C  0.95414311  0.08646000  0.04686693     0.04200
C2589       C  0.98265318  0.04699313  0.09203892     0.38900
C2590       C  0.93371237  0.12459952  0.05094258     0.38900
C2591       C  0.94897720  0.08735501  0.02191686     0.37300
C2592       C  0.96080547  0.08090177  0.12103147     0.37300
N2593       N  0.94483909  0.08807849  0.00203775    -0.37500
N2594       N  0.96075544  0.07743930  0.14103532    -0.37500
N2595       N  0.92414136  0.14044025  0.04252702    -0.37000
N2596       N  0.99296781  0.03175543  0.10070058    -0.37000
C2597       C  0.09343755  0.95638067  0.09305654    -0.03600
C2598       C  0.06995791  0.94859325  0.09519402    -0.00800
C2599       C  0.05247740  0.95713610  0.07983177     0.04200
C2600       C  0.05827718  0.97371657  0.06232384    -0.03600
C2601       C  0.08179518  0.98137372  0.06016825    -0.00700
C2602       C  0.09937116  0.97207719  0.07487280     0.04200
C2603       C  0.06365192  0.93184182  0.11330969     0.38900
C2604       C  0.08801373  0.99920619  0.04304431     0.38900
C2605       C  0.12373051  0.97727533  0.06982778     0.37300
C2606       C  0.02872158  0.94814474  0.08156356     0.37300
N2607       N  0.14297868  0.98135204  0.06487145    -0.37500
N2608       N  0.00979615  0.94092538  0.08289971    -0.37500
N2609       N  0.09298113  0.01345688  0.02945831    -0.37000
N2610       N  0.05858767  0.91851642  0.12776635    -0.37000
C2611       C  0.94015249  0.93952370  0.03451530    -0.03600
C2612       C  0.92203024  0.94608541  0.05009478    -0.00800
C2613       C  0.90658623  0.92900038  0.05909456     0.04200
C2614       C  0.90871008  0.90525332  0.05207689    -0.03600
C2615       C  0.92778333  0.89850335  0.03775483    -0.00700
C2616       C  0.94314786  0.91561747  0.02860506     0.04200
C2617       C  0.91849832  0.97062664  0.05599127     0.38900
C2618       C  0.93286589  0.87387243  0.03393141     0.38900
C2619       C  0.96249506  0.90849757  0.01363398     0.37300
C2620       C  0.88813982  0.93608180  0.07517739     0.37300
N2621       N  0.97790230  0.90282628  0.00167335    -0.37500
N2622       N  0.87348413  0.94171926  0.08805912    -0.37500
N2623       N  0.93772998  0.85435444  0.03107142    -0.37000
N2624       N  0.91560635  0.99020533  0.06059797    -0.37000
C2625       C  0.89709709  0.04416629  0.91149327    -0.03600
C2626       C  0.89210558  0.02809421  0.92969768    -0.00800
C2627       C  0.91011204  0.02034068  0.94489238     0.04200
C2628       C  0.93305044  0.02956117  0.94287675    -0.03600
C2629       C  0.93768336  0.04683797  0.92569630    -0.00700
C2630       C  0.91986490  0.05400741  0.91003861     0.04200
C2631       C  0.86817176  0.02094666  0.93428812     0.38900
C2632       C  0.96102358  0.05679983  0.92355403     0.38900
C2633       C  0.92526739  0.07120426  0.89204107     0.37300
C2634       C  0.90470676  0.00351440  0.96325659     0.37300
N2635       N  0.92961603  0.08493565  0.87773108    -0.37500
N2636       N  0.90040912  0.99006458  0.97785239    -0.37500
N2637       N  0.97960123  0.06481318  0.92191982    -0.37000
N2638       N  0.84926862  0.01525892  0.93896896    -0.37000
C2639       C  0.04589988  0.91031075  0.90567628    -0.03600
C2640       C  0.05291749  0.90844954  0.92944749    -0.00800
C2641       C  0.04373702  0.92397820  0.94635674     0.04200
C2642       C  0.02793875  0.94185057  0.93959835    -0.03600
C2643       C  0.02163993  0.94434204  0.91576014    -0.00700
C2644       C  0.03096642  0.92890291  0.89879062     0.04200
C2645       C  0.06885464  0.88993944  0.93681613     0.38900
C2646       C  0.00608765  0.96324042  0.90857679     0.38900
C2647       C  0.02646227  0.93325577  0.87413884     0.37300
C2648       C  0.04970635  0.92085190  0.97094279     0.37300
N2649       N  0.02300393  0.93735935  0.85455179    -0.37500
N2650       N  0.05433945  0.91831920  0.99056101    -0.37500
N2651       N  0.99364945  0.97828913  0.90288524    -0.37000
N2652       N  0.08144151  0.87511245  0.94275156    -0.37000
C2653       C  0.95685862  0.59234730  0.59751124    -0.03600
C2654       C  0.95037716  0.59425871  0.57358025    -0.00800
C2655       C  0.95908171  0.57808580  0.55692505     0.04200
C2656       C  0.97397421  0.55957183  0.56404682    -0.03600
C2657       C  0.98042429  0.55758031  0.58787003    -0.00700
C2658       C  0.97134779  0.57345301  0.60461763     0.04200
C2659       C  0.93472047  0.61288794  0.56596243     0.38900
C2660       C  0.99584381  0.53866800  0.59530573     0.38900
C2661       C  0.97508534  0.56870444  0.62929503     0.37300
C2662       C  0.95350165  0.58108312  0.53224570     0.37300
N2663       N  0.97791269  0.56387937  0.64881228    -0.37500
N2664       N  0.94925987  0.58360936  0.51253980    -0.37500
N2665       N  0.00824523  0.52365751  0.60117352    -0.37000
N2666       N  0.92223437  0.62772352  0.55983592    -0.37000
C2667       C  0.06307963  0.46790431  0.56203768    -0.03600
C2668       C  0.05585683  0.45464658  0.58164387    -0.00800
C2669       C  0.07244051  0.44729255  0.59851901     0.04200
C2670       C  0.09618438  0.45439267  0.59671039    -0.03600
C2671       C  0.10348318  0.46709824  0.57672700    -0.00700
C2672       C  0.08699499  0.47380971  0.55947196     0.04200
C2673       C  0.03114122  0.44986383  0.58532825     0.38900
C2674       C  0.12812824  0.47196115  0.57293215     0.38900
C2675       C  0.09474990  0.48627203  0.53866087     0.37300
C2676       C  0.06484130  0.43284321  0.61807117     0.37300
N2677       N  0.10087004  0.49613515  0.52200580    -0.37500
N2678       N  0.05881132  0.42130195  0.63364736    -0.37500
N2679       N  0.14769419  0.47579499  0.56916509    -0.37000
N2680       N  0.01142617  0.44635025  0.58862739    -0.37000
C2681       C  0.03641772  0.44104847  0.43912051    -0.03600
C2682       C  0.03150748  0.44421155  0.41490355    -0.00800
C2683       C  0.04224173  0.42984077  0.39787120     0.04200
C2684       C  0.05544869  0.41009098  0.40462842    -0.03600
C2685       C  0.06145637  0.40733883  0.42853459    -0.00700
C2686       C  0.05226924  0.42287984  0.44566829     0.04200
C2687       C  0.01431163  0.46124493  0.40711935     0.38900
C2688       C  0.07711220  0.38849372  0.43555971     0.38900
C2689       C  0.05957668  0.42022686  0.46992116     0.37300
C2690       C  0.04162409  0.43690038  0.37345082     0.37300
N2691       N  0.06547703  0.41809578  0.48924836    -0.37500
N2692       N  0.04172692  0.44355087  0.35426886    -0.37500
N2693       N  0.08961576  0.37347243  0.44117289    -0.37000
N2694       N  0.00032889  0.47438493  0.40047740    -0.37000
C2695       C  0.08802144  0.60245990  0.46039366    -0.03600
C2696       C  0.08780945  0.58168319  0.44683620    -0.00800
C2697       C  0.07212856  0.56328094  0.45240030     0.04200
C2698       C  0.05673519  0.56549078  0.47177145    -0.03600
C2699       C  0.05552089  0.58719026  0.48385922    -0.00700
C2700       C  0.07077947  0.60572720  0.47786842     0.04200
C2701       C  0.10444509  0.57890086  0.42778006     0.38900
C2702       C  0.03813266  0.59069952  0.50214404     0.38900
C2703       C  0.06894379  0.62806782  0.48992622     0.37300
C2704       C  0.07260484  0.54179894  0.43874987     0.37300
N2705       N  0.06726068  0.64583632  0.49961541    -0.37500
N2706       N  0.07294309  0.52474367  0.42771503    -0.37500
N2707       N  0.02422225  0.59342895  0.51668501    -0.37000
N2708       N  0.11775468  0.57678845  0.41259506    -0.37000
C2709       C  0.93787783  0.53109869  0.44567701    -0.03600
C2710       C  0.91709973  0.54132299  0.45523231    -0.00800
C2711       C  0.89941147  0.55018294  0.44030740     0.04200
C2712       C  0.90114427  0.54726974  0.41581793    -0.03600
C2713       C  0.92219953  0.53878205  0.40612415    -0.00700
C2714       C  0.94067459  0.53127641  0.42085033     0.04200
C2715       C  0.91360869  0.54334930  0.48039932     0.38900
C2716       C  0.92567869  0.53944882  0.38091758     0.38900
C2717       C  0.96275020  0.52485278  0.40997636     0.37300
C2718       C  0.87929659  0.56233335  0.45025624     0.37300
N2719       N  0.98039052  0.52052303  0.40092136    -0.37500
N2720       N  0.86334767  0.57211779  0.45818583    -0.37500
N2721       N  0.92915389  0.54019570  0.36093377    -0.37000
N2722       N  0.91049881  0.54489053  0.50041359    -0.37000
C2723       C  0.94000421  0.43624083  0.52995430    -0.03600
C2724       C  0.91614742  0.43965665  0.52362123    -0.00800
C2725       C  0.89853168  0.42438289  0.53204289     0.04200
C2726       C  0.90452423  0.40441257  0.54544919    -0.03600
C2727       C  0.92829393  0.40083296  0.55171134    -0.00700
C2728       C  0.94589390  0.41658588  0.54406154     0.04200
C2729       C  0.90951428  0.45866773  0.50795108     0.38900
C2730       C  0.93467232  0.38114072  0.56658618     0.38900
C2731       C  0.96995760  0.41274026  0.55143147     0.37300
C2732       C  0.87415874  0.43082971  0.52877158     0.37300
N2733       N  0.98911147  0.40940726  0.55733102    -0.37500
N2734       N  0.85501674  0.43719239  0.52637789    -0.37500
N2735       N  0.93974031  0.36546758  0.57849253    -0.37000
N2736       N  0.90416650  0.47372975  0.49538979    -0.37000
C2737       C  0.58307994  0.95326273  0.60002445    -0.03600
C2738       C  0.56608221  0.97088675  0.60392667    -0.00800
C2739       C  0.55363690  0.98083186  0.58488736     0.04200
C2740       C  0.55670849  0.97210234  0.56186324    -0.03600
C2741       C  0.57318224  0.95392631  0.55802016    -0.00700
C2742       C  0.58627926  0.94455196  0.57695516     0.04200
C2743       C  0.55985520  0.97749715  0.62768172     0.38900
C2744       C  0.57742643  0.94554241  0.53436258     0.38900
C2745       C  0.60335551  0.92614498  0.57254736     0.37300
C2746       C  0.53737652  0.99989343  0.58923217     0.37300
N2747       N  0.61704313  0.91152299  0.56905308    -0.37500
N2748       N  0.52479154  0.01537805  0.59299969    -0.37500
N2749       N  0.58097109  0.93896831  0.51547690    -0.37000
N2750       N  0.55416558  0.98264488  0.64647862    -0.37000
C2751       C  0.56639341  0.05505126  0.45980512    -0.03600
C2752       C  0.56331145  0.07960680  0.46100409    -0.00800
C2753       C  0.58076320  0.09475784  0.45219895     0.04200
C2754       C  0.60174180  0.08549624  0.44283972    -0.03600
C2755       C  0.60364484  0.06097773  0.43928963    -0.00700
C2756       C  0.58606419  0.04579197  0.44788452     0.04200
C2757       C  0.54157246  0.08926815  0.47011316     0.38900
C2758       C  0.62369831  0.05128561  0.42693887     0.38900
C2759       C  0.58836716  0.02061786  0.44473975     0.37300
C2760       C  0.57611901  0.11972389  0.45071386     0.37300
N2761       N  0.59009914  0.00054162  0.44212495    -0.37500
N2762       N  0.57179013  0.13949604  0.44897087    -0.37500
N2763       N  0.63964852  0.04349963  0.41705050    -0.37000
N2764       N  0.52414530  0.09698961  0.47714484    -0.37000
C2765       C  0.45376298  0.10579450  0.57564434    -0.03600
C2766       C  0.46037126  0.08398081  0.58539089    -0.00800
C2767       C  0.46893401  0.06589991  0.57080455     0.04200
C2768       C  0.47167940  0.06977730  0.54653225    -0.03600
C2769       C  0.46339607  0.09087718  0.53652394    -0.00700
C2770       C  0.45379026  0.10856180  0.55098789     0.04200
C2771       C  0.45621040  0.07924651  0.61001718     0.38900
C2772       C  0.46440783  0.09418824  0.51129857     0.38900
C2773       C  0.44333519  0.12924917  0.54042771     0.37300
C2774       C  0.47269294  0.04260435  0.58036544     0.37300
N2775       N  0.43484913  0.14567069  0.53196232    -0.37500
N2776       N  0.47485475  0.02388011  0.58793233    -0.37500
N2777       N  0.46516358  0.09674002  0.49116412    -0.37000
N2778       N  0.45250306  0.07483058  0.62947756    -0.37000
C2779       C  0.44648097  0.03115560  0.42730327    -0.03600
C2780       C  0.42298248  0.02350172  0.42615086    -0.00800
C2781       C  0.40688041  0.03469946  0.41111557     0.04200
C2782       C  0.41484495  0.05038555  0.39368330    -0.03600
C2783       C  0.43868532  0.05759451  0.39422922    -0.00700
C2784       C  0.45407408  0.04886243  0.41169241     0.04200
C2785       C  0.41562410  0.00289650  0.43908078     0.38900
C2786       C  0.44764941  0.07378999  0.37677805     0.38900
C2787       C  0.47742387  0.05872446  0.41407797     0.37300
C2788       C  0.38205179  0.03188468  0.41561623     0.37300
N2789       N  0.49594277  0.06676956  0.41620441    -0.37500
N2790       N  0.36242880  0.02988466  0.42038927    -0.37500
N2791       N  0.45492525  0.08668629  0.36289160    -0.37000
N2792       N  0.40985493  0.98591959  0.44857438    -0.37000
C2793       C  0.39649331  0.92348622  0.54783017    -0.03600
C2794       C  0.41975207  0.91987999  0.55567559    -0.00800
C2795       C  0.43821634  0.93387445  0.54690482     0.04200
C2796       C  0.43358162  0.95189330  0.53029306    -0.03600
C2797       C  0.40982085  0.95673490  0.52426336    -0.00700
C2798       C  0.39150035  0.94272089  0.53317613     0.04200
C2799       C  0.42481009  0.90153660  0.57264791     0.38900
C2800       C  0.40368556  0.97638746  0.50927344     0.38900
C2801       C  0.36731093  0.94927902  0.52864093     0.37300
C2802       C  0.46179076  0.93019000  0.55589962     0.37300
N2803       N  0.34818155  0.95522153  0.52525539    -0.37500
N2804       N  0.48054391  0.92728437  0.56318472    -0.37500
N2805       N  0.39838084  0.99229512  0.49780434    -0.37000
N2806       N  0.42889759  0.88689042  0.58612995    -0.37000
C2807       C  0.54211076  0.89233572  0.41273611    -0.03600
C2808       C  0.54305729  0.89036539  0.43738853    -0.00800
C2809       C  0.53558700  0.90915042  0.45182078     0.04200
C2810       C  0.52712641  0.93042755  0.44170963    -0.03600
C2811       C  0.52659443  0.93225259  0.41680149    -0.00700
C2812       C  0.53504072  0.91376370  0.40262741     0.04200
C2813       C  0.55239008  0.86915464  0.44802423     0.38900
C2814       C  0.51690048  0.95283794  0.40527069     0.38900
C2815       C  0.53880988  0.91785387  0.37780979     0.37300
C2816       C  0.53712779  0.90631858  0.47709420     0.37300
N2817       N  0.54250401  0.92190312  0.35826885    -0.37500
N2818       N  0.53829321  0.90386600  0.49722753    -0.37500
N2819       N  0.50911310  0.96910976  0.39588793    -0.37000
N2820       N  0.55988045  0.85230470  0.45658517    -0.37000
C2821       C  0.56322325  0.55828488  0.96285895    -0.03600
C2822       C  0.56027033  0.58292654  0.96558636    -0.00800
C2823       C  0.57825168  0.59850370  0.95871941     0.04200
C2824       C  0.59907354  0.58980818  0.94861765    -0.03600
C2825       C  0.60050743  0.56576859  0.94265506    -0.00700
C2826       C  0.58279403  0.55007497  0.94983228     0.04200
C2827       C  0.53847570  0.59270808  0.97436406     0.38900
C2828       C  0.62041606  0.55696699  0.92939818     0.38900
C2829       C  0.58427527  0.52566459  0.94262213     0.37300
C2830       C  0.57455859  0.62364243  0.96053839     0.37300
N2831       N  0.58537311  0.50625462  0.93670954    -0.37500
N2832       N  0.57109388  0.64362698  0.96170369    -0.37500
N2833       N  0.63622961  0.54990767  0.91877990    -0.37000
N2834       N  0.52095291  0.60088159  0.98059213    -0.37000
C2835       C  0.47243039  0.56055980  0.05797319    -0.03600
C2836       C  0.45550683  0.55435474  0.07514572    -0.00800
C2837       C  0.44465187  0.57185697  0.08905668     0.04200
C2838       C  0.45097960  0.59572243  0.08652699    -0.03600
C2839       C  0.46755603  0.60192933  0.06927421    -0.00700
C2840       C  0.47899980  0.58444553  0.05596227     0.04200
C2841       C  0.44939855  0.52996157  0.07904869     0.38900
C2842       C  0.47167120  0.62642082  0.06380995     0.38900
C2843       C  0.49889626  0.59105653  0.04162839     0.37300
C2844       C  0.42701252  0.56517385  0.10615516     0.37300
N2845       N  0.51518056  0.59648224  0.03083832    -0.37500
N2846       N  0.41295688  0.55980310  0.11977537    -0.37500
N2847       N  0.47480628  0.64580474  0.05865561    -0.37000
N2848       N  0.44476255  0.51051920  0.08262103    -0.37000
C2849       C  0.56360588  0.46896836  0.05981369    -0.03600
C2850       C  0.55745350  0.45079397  0.07557138    -0.00800
C2851       C  0.57337994  0.44356039  0.09311493     0.04200
C2852       C  0.59566439  0.45427682  0.09496699    -0.03600
C2853       C  0.60230111  0.47139927  0.07834103    -0.00700
C2854       C  0.58616506  0.47916841  0.06125760     0.04200
C2855       C  0.53488491  0.43917449  0.07355334     0.38900
C2856       C  0.62572054  0.48117815  0.07860861     0.38900
C2857       C  0.59259670  0.49835696  0.04577265     0.37300
C2858       C  0.56629123  0.42602848  0.11017020     0.37300
N2859       N  0.59771568  0.51368848  0.03348446    -0.37500
N2860       N  0.56054010  0.41222931  0.12390338    -0.37500
N2861       N  0.64420921  0.48946597  0.07806718    -0.37000
N2862       N  0.51689978  0.42990645  0.07189613    -0.37000
C2863       C  0.44405727  0.43693195  0.02738358    -0.03600
C2864       C  0.44842667  0.41281041  0.02383125    -0.00800
C2865       C  0.43235558  0.39594523  0.03210854     0.04200
C2866       C  0.41154532  0.40311765  0.04348182    -0.03600
C2867       C  0.40794647  0.42720770  0.04832686    -0.00700
C2868       C  0.42380238  0.44409867  0.03969374     0.04200
C2869       C  0.46983986  0.40533099  0.01221941     0.38900
C2870       C  0.38782115  0.43470872  0.06201909     0.38900
C2871       C  0.41859445  0.46889576  0.04234582     0.37300
C2872       C  0.43831948  0.37126021  0.03070223     0.37300
N2873       N  0.41420507  0.48865504  0.04414178    -0.37500
N2874       N  0.44379289  0.35170974  0.02994460    -0.37500
N2875       N  0.37175369  0.44071570  0.07289963    -0.37000
N2876       N  0.48694043  0.39945612  0.00296112    -0.37000
C2877       C  0.40658443  0.54774255  0.91110188    -0.03600
C2878       C  0.43009410  0.55542028  0.90912662    -0.00800
C2879       C  0.44768420  0.54524936  0.92319725     0.04200
C2880       C  0.44182981  0.52777274  0.93972425    -0.03600
C2881       C  0.41825729  0.52077521  0.94241326    -0.00700
C2882       C  0.40060034  0.53120936  0.92856648     0.04200
C2883       C  0.43640976  0.57342527  0.89225801     0.38900
C2884       C  0.41204381  0.50344963  0.96003145     0.38900
C2885       C  0.37620716  0.52637194  0.93378411     0.37300
C2886       C  0.47200338  0.55216148  0.92005404     0.37300
N2887       N  0.35690146  0.52261628  0.93878154    -0.37500
N2888       N  0.49140584  0.55756996  0.91752614    -0.37500
N2889       N  0.40714240  0.48959149  0.97404075    -0.37000
N2890       N  0.44148203  0.58783904  0.87888998    -0.37000
C2891       C  0.53679354  0.43590268  0.93778416    -0.03600
C2892       C  0.53361507  0.43919946  0.91343595    -0.00800
C2893       C  0.54170283  0.42215424  0.89728966     0.04200
C2894       C  0.55215573  0.40111765  0.90533792    -0.03600
C2895       C  0.55665575  0.39853189  0.92967459    -0.00700
C2896       C  0.54892669  0.41579328  0.94579652     0.04200
C2897       C  0.52291229  0.46071349  0.90493905     0.38900
C2898       C  0.56920416  0.37806908  0.93825145     0.38900
C2899       C  0.55305242  0.41262008  0.97072628     0.37300
C2900       C  0.54130255  0.42744239  0.87243947     0.37300
N2901       N  0.55638105  0.41011315  0.99060962    -0.37500
N2902       N  0.54142364  0.43244735  0.85276627    -0.37500
N2903       N  0.57922017  0.36175413  0.94510650    -0.37000
N2904       N  0.51447056  0.47793799  0.89820545    -0.37000
loop_ 
_geom_bond_atom_site_label_1 
_geom_bond_atom_site_label_2 
_geom_bond_distance 
_geom_bond_site_symmetry_2 
_ccdc_geom_bond_type 
Zn1           O5   1.955       .  S
Zn1           O6   1.985       .  S
Zn1          O10   2.008       .  S
Zn1          O17   2.029   1_556  S
Zn2           O5   1.965       .  S
Zn2           O7   2.034       .  S
Zn2           O9   2.016       .  S
Zn2          O13   2.014       .  S
Zn3           O5   1.959       .  S
Zn3           O8   2.027       .  S
Zn3          O11   2.038       .  S
Zn3          O14   2.011   1_556  S
Zn4           O5   1.963   1_554  S
Zn4          O12   2.010       .  S
Zn4          O15   2.015       .  S
Zn4          O16   2.031       .  S
O6           C18   1.270       .  A
O7           C19   1.274       .  A
O8           C20   1.276       .  A
O9           C18   1.273       .  A
O10          C20   1.272       .  A
O11          C19   1.274       .  A
O12          C21   1.274       .  A
O13          C22   1.273   1_556  A
O14          C21   1.274       .  A
O15          C22   1.273       .  A
O16          C23   1.273       .  A
O17          C23   1.274       .  A
C18        C2880   1.475       .  S
C19        C2891   1.491       .  S
C20        C2821   1.502       .  S
C21        C2849   1.486       .  S
C22        C2863   1.479       .  S
C23        C2835   1.504       .  S
Zn24         O28   1.970       .  S
Zn24         O29   2.039       .  S
Zn24         O33   2.042       .  S
Zn24         O40   2.049       .  S
Zn25         O28   1.956       .  S
Zn25         O30   2.011       .  S
Zn25         O32   1.995       .  S
Zn25         O36   2.002   1_545  S
Zn26         O28   1.967       .  S
Zn26         O31   2.011       .  S
Zn26         O34   2.035       .  S
Zn26         O37   2.023   1_545  S
Zn27         O28   1.965   1_565  S
Zn27         O35   2.024       .  S
Zn27         O38   2.029       .  S
Zn27         O39   2.037       .  S
O29          C41   1.275       .  A
O30          C42   1.273       .  A
O31          C43   1.273       .  A
O32          C41   1.269       .  A
O33          C43   1.277       .  A
O34          C42   1.274       .  A
O35          C44   1.274       .  A
O36          C45   1.271       .  A
O37          C44   1.275       .  A
O38          C45   1.275       .  A
O39          C46   1.276       .  A
O40          C46   1.277   1_545  A
C41        C2768   1.479       .  S
C42        C2779   1.491       .  S
C43        C2751   1.484       .  S
C44        C2810   1.509       .  S
C45        C2796   1.503       .  S
C46        C2740   1.496       .  S
Zn47         O51   1.959       .  S
Zn47         O52   2.017       .  S
Zn47         O56   2.006       .  S
Zn47         O63   2.019       .  S
Zn48         O51   1.967       .  S
Zn48         O53   2.031       .  S
Zn48         O55   2.030       .  S
Zn48         O59   2.025   1_455  S
Zn49         O51   1.972       .  S
Zn49         O54   2.038       .  S
Zn49         O57   2.043       .  S
Zn49         O60   2.049   1_455  S
Zn50         O51   1.956   1_655  S
Zn50         O58   2.022       .  S
Zn50         O61   2.000       .  S
Zn50         O62   2.021       .  S
O52          C64   1.273       .  A
O53          C65   1.277       .  A
O54          C66   1.277       .  A
O55          C64   1.273       .  A
O56          C66   1.273       .  A
O57          C65   1.277       .  A
O58          C67   1.275       .  A
O59          C68   1.274       .  A
O60          C67   1.277       .  A
O61          C68   1.271       .  A
O62          C69   1.273       .  A
O63          C69   1.272   1_455  A
C64        C2698   1.492       .  S
C65        C2681   1.507       .  S
C66        C2667   1.483       .  S
C67        C2723   1.504       .  S
C68        C2709   1.508       .  S
C69        C2656   1.485       .  S
Zn70         O74   1.959   1_566  S
Zn70         O75   2.014       .  S
Zn70         O79   2.019   1_556  S
Zn70         O86   2.016       .  S
Zn71         O74   1.949   1_556  S
Zn71         O76   2.013   1_556  S
Zn71         O78   2.015       .  S
Zn71         O82   2.019   1_655  S
Zn72         O74   1.961   1_565  S
Zn72         O77   2.019       .  S
Zn72         O80   2.026   1_565  S
Zn72         O83   2.030   1_655  S
Zn73         O74   1.948   1_466  S
Zn73         O81   1.988   1_556  S
Zn73         O84   2.016   1_565  S
Zn73         O85   2.002       .  S
O75          C87   1.273   1_565  A
O76          C88   1.273       .  A
O77          C89   1.274       .  A
O78          C87   1.274       .  A
O79          C89   1.274       .  A
O80          C88   1.275       .  A
O81          C90   1.271       .  A
O82          C91   1.274       .  A
O83          C90   1.275       .  A
O84          C91   1.272       .  A
O85          C92   1.272       .  A
O86          C92   1.273   1_655  A
C87        C2628   1.488       .  S
C88        C2583   1.501       .  S
C89        C2611   1.485       .  S
C90        C2600   1.486       .  S
C91        C2569   1.504       .  S
C92        C2642   1.480       .  S
Zn93         O97   1.958       .  S
Zn93         O98   2.008       .  S
Zn93        O102   2.004       .  S
Zn93        O109   2.017       .  S
Zn94         O97   1.959       .  S
Zn94         O99   2.030       .  S
Zn94        O101   2.030       .  S
Zn94        O105   2.040       .  S
Zn95         O97   1.968       .  S
Zn95        O100   2.039       .  S
Zn95        O103   2.032       .  S
Zn95        O106   2.032       .  S
Zn96         O97   1.960       .  S
Zn96        O104   2.004       .  S
Zn96        O107   2.019       .  S
Zn96        O108   2.020       .  S
O98         C110   1.273       .  A
O99         C111   1.276       .  A
O100        C112   1.276       .  A
O101        C110   1.276       .  A
O102        C112   1.272       .  A
O103        C111   1.275       .  A
O104        C113   1.272       .  A
O105        C114   1.277       .  A
O106        C113   1.276       .  A
O107        C114   1.274       .  A
O108        C115   1.272       .  A
O109        C115   1.272       .  A
C110       C2485   1.492       .  S
C111       C2513   1.508       .  S
C112       C2499   1.484       .  S
C113       C2555   1.488       .  S
C114       C2541   1.508       .  S
C115       C2530   1.481       .  S
Zn116       O120   1.958       .  S
Zn116       O121   2.020       .  S
Zn116       O125   2.025       .  S
Zn116       O132   2.006       .  S
Zn117       O120   1.967       .  S
Zn117       O122   2.021       .  S
Zn117       O124   2.020       .  S
Zn117       O128   2.031       .  S
Zn118       O120   1.963       .  S
Zn118       O123   2.033       .  S
Zn118       O126   2.012       .  S
Zn118       O129   2.026       .  S
Zn119       O120   1.954       .  S
Zn119       O127   2.008       .  S
Zn119       O130   2.007       .  S
Zn119       O131   2.003       .  S
O121        C133   1.274       .  A
O122        C134   1.275       .  A
O123        C135   1.275       .  A
O124        C133   1.274       .  A
O125        C135   1.274       .  A
O126        C134   1.274       .  A
O127        C136   1.273       .  A
O128        C137   1.274       .  A
O129        C136   1.274       .  A
O130        C137   1.272       .  A
O131        C138   1.272       .  A
O132        C138   1.272       .  A
C133       C2429   1.488       .  S
C134       C2401   1.481       .  S
C135       C2415   1.492       .  S
C136       C2471   1.486       .  S
C137       C2446   1.495       .  S
C138       C2457   1.492       .  S
Zn139       O143   1.957       .  S
Zn139       O144   2.005       .  S
Zn139       O148   2.006       .  S
Zn139       O155   2.020       .  S
Zn140       O143   1.951       .  S
Zn140       O145   2.005       .  S
Zn140       O147   2.005       .  S
Zn140       O151   1.993       .  S
Zn141       O143   1.964       .  S
Zn141       O146   2.031       .  S
Zn141       O149   2.027       .  S
Zn141       O152   2.022       .  S
Zn142       O143   1.954       .  S
Zn142       O150   2.002       .  S
Zn142       O153   2.020       .  S
Zn142       O154   2.008       .  S
O144        C156   1.272       .  A
O145        C157   1.272       .  A
O146        C158   1.275       .  A
O147        C156   1.272       .  A
O148        C158   1.272       .  A
O149        C157   1.274       .  A
O150        C159   1.272       .  A
O151        C160   1.270       .  A
O152        C159   1.274       .  A
O153        C160   1.273       .  A
O154        C161   1.273       .  A
O155        C161   1.273       .  A
C156       C2334   1.490       .  S
C157       C2345   1.482       .  S
C158       C2387   1.481       .  S
C159       C2359   1.482       .  S
C160       C2317   1.489       .  S
C161       C2373   1.492       .  S
Zn162       O166   1.958       .  S
Zn162       O167   2.011       .  S
Zn162       O171   2.014       .  S
Zn162       O178   1.993       .  S
Zn163       O166   1.954       .  S
Zn163       O168   2.005       .  S
Zn163       O170   2.013       .  S
Zn163       O174   2.019       .  S
Zn164       O166   1.949       .  S
Zn164       O169   2.005       .  S
Zn164       O172   2.002       .  S
Zn164       O175   1.999       .  S
Zn165       O166   1.956       .  S
Zn165       O173   2.018       .  S
Zn165       O176   2.007       .  S
Zn165       O177   2.000       .  S
O167        C179   1.272       .  A
O168        C180   1.273       .  A
O169        C181   1.271       .  A
O170        C179   1.273       .  A
O171        C181   1.272       .  A
O172        C180   1.272       .  A
O173        C182   1.272       .  A
O174        C183   1.273       .  A
O175        C182   1.271       .  A
O176        C183   1.272       .  A
O177        C184   1.272       .  A
O178        C184   1.271       .  A
C179       C2261   1.481       .  S
C180       C2233   1.477       .  S
C181       C2289   1.479       .  S
C182       C2247   1.477       .  S
C183       C2275   1.481       .  S
C184       C2303   1.471       .  S
N185        C189   1.358       .  A
N185        C186   1.359       .  A
N185       C2264   1.450       .  S
C186       C2320   1.491       .  S
C186        C187   1.383       .  A
C187        C188   1.376       .  A
C187        H190   1.082       .  S
C188        C189   1.382       .  A
C188        H191   1.082       .  S
C189       C2219   1.488       .  S
N192        C196   1.357       .  A
N192        C193   1.357       .  A
N192       C2236   1.448       .  S
C193       C2877   1.487       .  S
C193        C194   1.383       .  A
C194        C195   1.377       .  A
C194        H197   1.082       .  S
C195        C196   1.384       .  A
C195        H198   1.082       .  S
C196       C2331   1.491       .  S
N199        C203   1.360       .  A
N199        C200   1.362       .  A
N199       C2250   1.446       .  S
C200       C2894   1.502       .  S
C200        C201   1.384       .  A
C201        C202   1.380       .  A
C201        H204   1.082       .  S
C202        C203   1.383       .  A
C202        H205   1.082       .  S
C203       C2418   1.500       .  S
N206        C210   1.361       .  A
N206        C207   1.361       .  A
N206       C2278   1.450       .  S
C207       C2376   1.496       .  S
C207        C208   1.383       .  A
C208        C209   1.376       .  A
C208        H211   1.082       .  S
C209        C210   1.384       .  A
C209        H212   1.082       .  S
C210       C2474   1.497       .  S
N213        C217   1.359       .  A
N213        C214   1.360       .  A
N213       C2306   1.446       .  S
C214       C2205   1.497       .  S
C214        C215   1.383       .  A
C215        C216   1.378       .  A
C215        H218   1.082       .  S
C216        C217   1.383       .  A
C216        H219   1.082       .  S
C217       C2404   1.494       .  S
N220        C224   1.359       .  A
N220        C221   1.359       .  A
N220       C2292   1.449       .  S
C221       C2866   1.490       .  S
C221        C222   1.382       .  A
C222        C223   1.378       .  A
C222        H225   1.082       .  S
C223        C224   1.383       .  A
C223        H226   1.082       .  S
C224       C2194   1.493       .  S
Zn227       O231   1.957       .  S
Zn227       O232   2.015       .  S
Zn227       O236   2.010   1_556  S
Zn227       O243   2.030       .  S
Zn228       O231   1.966       .  S
Zn228       O233   2.021   1_556  S
Zn228       O235   2.033       .  S
Zn228       O239   2.025       .  S
Zn229       O231   1.969   1_554  S
Zn229       O234   2.032       .  S
Zn229       O237   2.054       .  S
Zn229       O240   2.035       .  S
Zn230       O231   1.964       .  S
Zn230       O238   2.011       .  S
Zn230       O241   2.003       .  S
Zn230       O242   2.017       .  S
O232        C244   1.273       .  A
O233        C245   1.273       .  A
O234        C246   1.275       .  A
O235        C244   1.275       .  A
O236        C246   1.273       .  A
O237        C245   1.278       .  A
O238        C247   1.272   1_556  A
O239        C248   1.276       .  A
O240        C247   1.275       .  A
O241        C248   1.272       .  A
O242        C249   1.272       .  A
O243        C249   1.274       .  A
C244       C2152   1.502       .  S
C245       C2163   1.507       .  S
C246       C2180   1.509       .  S
C247       C2191   1.485       .  S
C248       C2222   1.478       .  S
C249       C2208   1.486       .  S
Zn250       O254   1.957       .  S
Zn250       O255   2.007       .  S
Zn250       O259   2.018       .  S
Zn250       O266   2.000       .  S
Zn251       O254   1.960       .  S
Zn251       O256   2.028       .  S
Zn251       O258   2.026       .  S
Zn251       O262   2.033       .  S
Zn252       O254   1.949       .  S
Zn252       O257   2.004       .  S
Zn252       O260   2.002       .  S
Zn252       O263   2.002       .  S
Zn253       O254   1.959       .  S
Zn253       O261   2.019       .  S
Zn253       O264   2.008       .  S
Zn253       O265   2.010       .  S
O255        C267   1.272       .  A
O256        C268   1.276       .  A
O257        C269   1.271       .  A
O258        C267   1.275       .  A
O259        C269   1.272       .  A
O260        C268   1.272       .  A
O261        C270   1.273       .  A
O262        C271   1.275       .  A
O263        C270   1.271       .  A
O264        C271   1.273       .  A
O265        C272   1.273       .  A
O266        C272   1.273       .  A
C267       C2082   1.488       .  S
C268       C2093   1.490       .  S
C269       C2065   1.483       .  S
C270       C2121   1.492       .  S
C271       C2138   1.507       .  S
C272       C2107   1.476       .  S
Zn273       O277   1.967       .  S
Zn273       O278   2.021       .  S
Zn273       O282   2.031       .  S
Zn273       O289   2.035       .  S
Zn274       O277   1.962       .  S
Zn274       O279   2.005       .  S
Zn274       O281   2.019       .  S
Zn274       O285   2.019       .  S
Zn275       O277   1.961       .  S
Zn275       O280   2.015       .  S
Zn275       O283   2.016       .  S
Zn275       O286   2.013       .  S
Zn276       O277   1.965       .  S
Zn276       O284   2.051       .  S
Zn276       O287   2.027       .  S
Zn276       O288   2.035       .  S
O278        C290   1.273       .  A
O279        C291   1.272       .  A
O280        C292   1.273       .  A
O281        C290   1.273       .  A
O282        C292   1.276       .  A
O283        C291   1.272       .  A
O284        C293   1.278       .  A
O285        C294   1.274       .  A
O286        C293   1.273       .  A
O287        C294   1.275       .  A
O288        C295   1.277       .  A
O289        C295   1.276       .  A
C290       C1981   1.479       .  S
C291       C2009   1.498       .  S
C292       C1995   1.486       .  S
C293       C2037   1.491       .  S
C294       C2051   1.495       .  S
C295       C2023   1.503       .  S
Zn296       O300   1.956       .  S
Zn296       O301   2.010       .  S
Zn296       O305   2.028       .  S
Zn296       O312   2.012       .  S
Zn297       O300   1.966       .  S
Zn297       O302   2.027       .  S
Zn297       O304   2.025       .  S
Zn297       O308   2.025       .  S
Zn298       O300   1.945       .  S
Zn298       O303   2.005       .  S
Zn298       O306   1.981       .  S
Zn298       O309   1.998       .  S
Zn299       O300   1.956       .  S
Zn299       O307   2.023       .  S
Zn299       O310   2.023       .  S
Zn299       O311   2.016       .  S
O301        C313   1.273       .  A
O302        C314   1.274       .  A
O303        C315   1.271       .  A
O304        C313   1.274       .  A
O305        C315   1.274       .  A
O306        C314   1.270       .  A
O307        C316   1.274       .  A
O308        C317   1.275       .  A
O309        C316   1.270       .  A
O310        C317   1.274       .  A
O311        C318   1.274       .  A
O312        C318   1.273       .  A
C313       C1925   1.496       .  S
C314       C1897   1.470       .  S
C315       C1939   1.494       .  S
C316       C1911   1.494       .  S
C317       C1967   1.497       .  S
C318       C1953   1.511       .  S
N319        C323   1.362       .  A
N319        C320   1.363       .  A
N319       C1970   1.454       .  S
C320       C1883   1.496       .  S
C320        C321   1.384       .  A
C321        C322   1.374       .  A
C321        H324   1.082       .  S
C322        C323   1.382       .  A
C322        H325   1.082       .  S
C323       C2824   1.491       .  S
N326        C330   1.374       .  A
N326        C327   1.374       .  A
N326       C1900   1.474       .  S
C327       C2852   1.490       .  S
C327        C328   1.379       .  A
C328        C329   1.364       .  A
C328        H331   1.082       .  S
C329        C330   1.379       .  A
C329        H332   1.082       .  S
C330       C2124   1.487       .  S
N333        C337   1.360       .  A
N333        C334   1.359       .  A
N333       C1928   1.452       .  S
C334       C1872   1.489       .  S
C334        C335   1.382       .  A
C335        C336   1.376       .  A
C335        H338   1.082       .  S
C336        C337   1.383       .  A
C336        H339   1.082       .  S
C337       C2096   1.491       .  S
N340        C344   1.360       .  A
N340        C341   1.361       .  A
N340       C1914   1.449       .  S
C341       C2838   1.498       .  S
C341        C342   1.383       .  A
C342        C343   1.379       .  A
C342        H345   1.090       .  S
C343        C344   1.382       .  A
C343        H346   1.089       .  S
C344       C2544   1.494       .  S
N347        C351   1.358       .  A
N347        C348   1.358       .  A
N347       C1956   1.445       .  S
C348       C1855   1.492       .  S
C348        C349   1.383       .  A
C349        C350   1.381       .  A
C349        H352   1.082       .  S
C350        C351   1.383       .  A
C350        H353   1.082       .  S
C351       C2516   1.495       .  S
N354        C358   1.361       .  A
N354        C355   1.362       .  A
N354       C1942   1.452       .  S
C355       C2558   1.495       .  S
C355        C356   1.384       .  A
C356        C357   1.375       .  A
C356        H359   1.082       .  S
C357        C358   1.382       .  A
C357        H360   1.082       .  S
C358       C2135   1.492       .  S
Zn361       O365   1.964       .  S
Zn361       O366   2.020       .  S
Zn361       O370   2.027       .  S
Zn361       O377   2.021       .  S
Zn362       O365   1.964   1_556  S
Zn362       O367   2.025       .  S
Zn362       O369   2.017       .  S
Zn362       O373   2.042       .  S
Zn363       O365   1.960       .  S
Zn363       O368   2.021       .  S
Zn363       O371   2.011   1_554  S
Zn363       O374   2.022       .  S
Zn364       O365   1.953       .  S
Zn364       O372   2.015       .  S
Zn364       O375   2.003   1_554  S
Zn364       O376   2.013       .  S
O366        C378   1.274   1_554  A
O367        C379   1.275       .  A
O368        C380   1.273       .  A
O369        C378   1.274       .  A
O370        C380   1.274       .  A
O371        C379   1.273       .  A
O372        C381   1.273       .  A
O373        C382   1.276       .  A
O374        C381   1.274       .  A
O375        C382   1.272       .  A
O376        C383   1.273       .  A
O377        C383   1.273       .  A
C378       C1886   1.490       .  S
C379       C1841   1.504       .  S
C380       C1858   1.483       .  S
C381       C1813   1.502       .  S
C382       C1827   1.494       .  S
C383       C1869   1.480       .  S
Zn384       O388   1.957       .  S
Zn384       O389   2.019       .  S
Zn384       O393   2.020       .  S
Zn384       O400   2.025       .  S
Zn385       O388   1.943       .  S
Zn385       O390   1.991       .  S
Zn385       O392   2.002       .  S
Zn385       O396   1.999       .  S
Zn386       O388   1.962       .  S
Zn386       O391   2.018       .  S
Zn386       O394   2.025       .  S
Zn386       O397   2.006       .  S
Zn387       O388   1.958       .  S
Zn387       O395   2.007       .  S
Zn387       O398   2.012       .  S
Zn387       O399   2.009       .  S
O389        C401   1.274       .  A
O390        C402   1.269       .  A
O391        C403   1.274       .  A
O392        C401   1.272       .  A
O393        C403   1.274       .  A
O394        C402   1.273       .  A
O395        C404   1.272       .  A
O396        C405   1.271       .  A
O397        C404   1.272       .  A
O398        C405   1.272       .  A
O399        C406   1.272       .  A
O400        C406   1.274       .  A
C401       C1760   1.478       .  S
C402       C1729   1.503       .  S
C403       C1785   1.484       .  S
C404       C1771   1.476       .  S
C405       C1743   1.481       .  S
C406       C1799   1.482       .  S
N407        C411   1.359       .  A
N407        C408   1.360       .  A
N407       C1757   1.447       .  S
C408       C1715   1.496       .  S
C408        C409   1.383       .  A
C409        C410   1.380       .  A
C409        H412   1.082       .  S
C410        C411   1.384       .  A
C410        H413   1.082       .  S
C411       C2653   1.497       .  S
N414        C418   1.361       .  A
N414        C415   1.361       .  A
N414       C1788   1.452       .  S
C415       C2012   1.492       .  S
C415        C416   1.382       .  A
C416        C417   1.375       .  A
C416        H419   1.082       .  S
C417        C418   1.383       .  A
C417        H420   1.082       .  S
C418       C1701   1.493       .  S
N421        C425   1.376       .  A
N421        C422   1.376       .  A
N421       C1732   1.473       .  S
C422       C2040   1.495       .  S
C422        C423   1.380       .  A
C423        C424   1.365       .  A
C423        H426   1.082       .  S
C424        C425   1.378       .  A
C424        H427   1.082       .  S
C425       C2695   1.491       .  S
N428        C432   1.358       .  A
N428        C429   1.358       .  A
N428       C1802   1.449       .  S
C429       C2348   1.490       .  S
C429        C430   1.383       .  A
C430        C431   1.379       .  A
C430        H433   1.082       .  S
C431        C432   1.383       .  A
C431        H434   1.082       .  S
C432       C1687   1.490       .  S
N435        C439   1.361       .  A
N435        C436   1.361       .  A
N435       C1746   1.450       .  S
C436       C2362   1.494       .  S
C436        C437   1.383       .  A
C437        C438   1.375       .  A
C437        H440   1.082       .  S
C438        C439   1.383       .  A
C438        H441   1.082       .  S
C439       C2670   1.493       .  S
N442        C446   1.359       .  A
N442        C443   1.359       .  A
N442       C1774   1.446       .  S
C443       C2390   1.494       .  S
C443        C444   1.382       .  A
C444        C445   1.378       .  A
C444        H447   1.085       .  S
C445        C446   1.384       .  A
C445        H448   1.084       .  S
C446       C2054   1.497       .  S
Zn449       O453   1.959       .  S
Zn449       O454   2.044       .  S
Zn449       O458   2.032       .  S
Zn449       O465   2.009   1_655  S
Zn450       O453   1.956       .  S
Zn450       O455   1.996       .  S
Zn450       O457   2.002       .  S
Zn450       O461   2.029   1_655  S
Zn451       O453   1.964       .  S
Zn451       O456   2.027       .  S
Zn451       O459   2.012       .  S
Zn451       O462   2.014       .  S
Zn452       O453   1.959   1_455  S
Zn452       O460   2.007       .  S
Zn452       O463   2.006       .  S
Zn452       O464   2.015       .  S
O454        C466   1.277       .  A
O455        C467   1.271       .  A
O456        C468   1.274       .  A
O457        C466   1.272       .  A
O458        C468   1.275       .  A
O459        C467   1.273       .  A
O460        C469   1.272       .  A
O461        C470   1.274       .  A
O462        C469   1.273   1_655  A
O463        C470   1.272       .  A
O464        C471   1.273       .  A
O465        C471   1.274       .  A
C466       C1718   1.503       .  S
C467       C1659   1.474       .  S
C468       C1673   1.490       .  S
C469       C1645   1.482       .  S
C470       C1704   1.494       .  S
C471       C1690   1.496       .  S
Zn472       O476   1.953       .  S
Zn472       O477   2.011       .  S
Zn472       O481   2.011       .  S
Zn472       O488   2.013       .  S
Zn473       O476   1.957       .  S
Zn473       O478   2.017       .  S
Zn473       O480   2.016       .  S
Zn473       O484   2.010       .  S
Zn474       O476   1.953       .  S
Zn474       O479   1.989       .  S
Zn474       O482   1.989       .  S
Zn474       O485   2.014       .  S
Zn475       O476   1.956       .  S
Zn475       O483   2.013       .  S
Zn475       O486   2.006       .  S
Zn475       O487   2.008       .  S
O477        C489   1.273       .  A
O478        C490   1.273       .  A
O479        C491   1.270       .  A
O480        C489   1.273       .  A
O481        C491   1.273       .  A
O482        C490   1.270       .  A
O483        C492   1.272       .  A
O484        C493   1.274       .  A
O485        C492   1.272       .  A
O486        C493   1.272       .  A
O487        C494   1.273       .  A
O488        C494   1.273       .  A
C489       C1617   1.482       .  S
C490       C1589   1.477       .  S
C491       C1631   1.474       .  S
C492       C1603   1.481       .  S
C493       C1575   1.479       .  S
C494       C1561   1.481       .  S
N495        C499   1.360       .  A
N495        C496   1.361       .  A
N495       C1606   1.449       .  S
C496       C1816   1.496       .  S
C496        C497   1.384       .  A
C497        C498   1.376       .  A
C497        H500   1.082       .  S
C498        C499   1.383       .  A
C498        H501   1.082       .  S
C499       C2614   1.493       .  S
N502        C506   1.359       .  A
N502        C503   1.361       .  A
N502       C1620   1.449       .  S
C503       C1547   1.497       .  S
C503        C504   1.385       .  A
C504        C505   1.375       .  A
C504        H507   1.082       .  S
C505        C506   1.381       .  A
C505        H508   1.082       .  S
C506       C1662   1.491       .  S
N509        C513   1.362       .  A
N509        C510   1.362       .  A
N509       C1578   1.448       .  S
C510       C1830   1.501       .  S
C510        C511   1.384       .  A
C511        C512   1.379       .  A
C511        H514   1.082       .  S
C512        C513   1.384       .  A
C512        H515   1.082       .  S
C513       C1676   1.502       .  S
N516        C520   1.358       .  A
N516        C517   1.358       .  A
N516       C1564   1.448       .  S
C517       C1533   1.490       .  S
C517        C518   1.383       .  A
C518        C519   1.377       .  A
C518        H521   1.082       .  S
C519        C520   1.382       .  A
C519        H522   1.082       .  S
C520       C1844   1.489       .  S
N523        C527   1.359       .  A
N523        C524   1.359       .  A
N523       C1592   1.449       .  S
C524       C2639   1.491       .  S
C524        C525   1.383       .  A
C525        C526   1.376       .  A
C525        H528   1.082       .  S
C526        C527   1.383       .  A
C526        H529   1.082       .  S
C527       C1648   1.493       .  S
N530        C534   1.360       .  A
N530        C531   1.359       .  A
N530       C1634   1.446       .  S
C531       C1522   1.495       .  S
C531        C532   1.382       .  A
C532        C533   1.377       .  A
C532        H535   1.082       .  S
C533        C534   1.384       .  A
C533        H536   1.082       .  S
C534       C2625   1.496       .  S
Zn537       O541   1.955       .  S
Zn537       O542   2.022       .  S
Zn537       O546   2.013       .  S
Zn537       O553   2.037       .  S
Zn538       O541   1.962       .  S
Zn538       O543   2.021       .  S
Zn538       O545   2.011       .  S
Zn538       O549   2.018       .  S
Zn539       O541   1.967       .  S
Zn539       O544   2.007       .  S
Zn539       O547   2.018       .  S
Zn539       O550   2.029       .  S
Zn540       O541   1.935       .  S
Zn540       O548   1.986       .  S
Zn540       O551   1.980       .  S
Zn540       O552   2.002       .  S
O542        C554   1.274       .  A
O543        C555   1.274       .  A
O544        C556   1.273       .  A
O545        C554   1.272       .  A
O546        C556   1.275       .  A
O547        C555   1.274       .  A
O548        C557   1.270       .  A
O549        C558   1.273       .  A
O550        C557   1.273       .  A
O551        C558   1.269       .  A
O552        C559   1.271       .  A
O553        C559   1.274       .  A
C554       C1449   1.480       .  S
C555       C1480   1.487       .  S
C556       C1435   1.475       .  S
C557       C1505   1.494       .  S
C558       C1491   1.472       .  S
C559       C1463   1.485       .  S
N560        C564   1.360       .  A
N560        C561   1.362       .  A
N560       C1466   1.448       .  S
C561       C2737   1.500       .  S
C561        C562   1.384       .  A
C562        C563   1.379       .  A
C562        H565   1.083       .  S
C563        C564   1.382       .  A
C563        H566   1.082       .  S
C564       C1421   1.492       .  S
N567        C571   1.358       .  A
N567        C568   1.359       .  A
N567       C1452   1.447       .  S
C568       C2754   1.493       .  S
C568        C569   1.383       .  A
C569        C570   1.380       .  A
C569        H572   1.082       .  S
C570        C571   1.384       .  A
C570        H573   1.082       .  S
C571       C1407   1.495       .  S
N574        C578   1.371       .  A
N574        C575   1.371       .  A
N574       C1508   1.469       .  S
C575       C1393   1.483       .  S
C575        C576   1.378       .  A
C576        C577   1.366       .  A
C576        H579   1.082       .  S
C577        C578   1.381       .  A
C577        H580   1.083       .  S
C578       C2432   1.492       .  S
N581        C585   1.358       .  A
N581        C582   1.357       .  A
N581       C1438   1.446       .  S
C582       C2765   1.490       .  S
C582        C583   1.382       .  A
C583        C584   1.380       .  A
C583        H586   1.082       .  S
C584        C585   1.384       .  A
C584        H587   1.082       .  S
C585       C2443   1.493       .  S
N588        C592   1.360       .  A
N588        C589   1.359       .  A
N588       C1494   1.446       .  S
C589       C1365   1.496       .  S
C589        C590   1.383       .  A
C590        C591   1.377       .  A
C590        H593   1.083       .  S
C591        C592   1.383       .  A
C591        H594   1.082       .  S
C592       C1382   1.496       .  S
N595        C599   1.361       .  A
N595        C596   1.360       .  A
N595       C1477   1.454       .  S
C596       C1354   1.488       .  S
C596        C597   1.382       .  A
C597        C598   1.372       .  A
C597        H600   1.082       .  S
C598        C599   1.383       .  A
C598        H601   1.082       .  S
C599       C2460   1.489       .  S
Zn602       O606   1.958   1_545  S
Zn602       O607   2.023       .  S
Zn602       O611   2.032       .  S
Zn602       O618   2.027       .  S
Zn603       O606   1.963       .  S
Zn603       O608   2.020       .  S
Zn603       O610   2.027   1_565  S
Zn603       O614   2.030       .  S
Zn604       O606   1.963       .  S
Zn604       O609   2.011       .  S
Zn604       O612   2.015       .  S
Zn604       O615   2.014       .  S
Zn605       O606   1.952       .  S
Zn605       O613   1.998       .  S
Zn605       O616   2.009       .  S
Zn605       O617   2.010   1_565  S
O607        C619   1.275       .  A
O608        C620   1.274       .  A
O609        C621   1.272   1_565  A
O610        C619   1.275       .  A
O611        C621   1.276       .  A
O612        C620   1.273       .  A
O613        C622   1.271       .  A
O614        C623   1.274       .  A
O615        C622   1.272       .  A
O616        C623   1.271       .  A
O617        C624   1.272       .  A
O618        C624   1.274       .  A
C619       C1379   1.503       .  S
C620       C1550   1.489       .  S
C621       C1519   1.483       .  S
C622       C1536   1.478       .  S
C623       C1424   1.514       .  S
C624       C1396   1.495       .  S
Zn625       O629   1.954       .  S
Zn625       O630   2.014       .  S
Zn625       O634   1.997       .  S
Zn625       O641   2.001       .  S
Zn626       O629   1.957       .  S
Zn626       O631   2.030       .  S
Zn626       O633   2.018       .  S
Zn626       O637   2.013       .  S
Zn627       O629   1.963       .  S
Zn627       O632   2.023       .  S
Zn627       O635   2.030       .  S
Zn627       O638   2.026       .  S
Zn628       O629   1.962       .  S
Zn628       O636   2.027       .  S
Zn628       O639   2.024       .  S
Zn628       O640   2.017       .  S
O630        C642   1.272       .  A
O631        C643   1.276       .  A
O632        C644   1.273       .  A
O633        C642   1.273       .  A
O634        C644   1.271       .  A
O635        C643   1.275       .  A
O636        C645   1.274       .  A
O637        C646   1.274       .  A
O638        C645   1.274       .  A
O639        C646   1.275       .  A
O640        C647   1.273       .  A
O641        C647   1.271       .  A
C642       C1410   1.493       .  S
C643       C1309   1.494       .  S
C644       C1337   1.474       .  S
C645       C1323   1.482       .  S
C646       C1368   1.497       .  S
C647       C1351   1.489       .  S
Zn648       O652   1.956       .  S
Zn648       O653   2.025       .  S
Zn648       O657   2.034       .  S
Zn648       O664   2.016       .  S
Zn649       O652   1.957       .  S
Zn649       O654   2.016       .  S
Zn649       O656   2.024       .  S
Zn649       O660   2.027       .  S
Zn650       O652   1.951       .  S
Zn650       O655   2.003       .  S
Zn650       O658   2.005       .  S
Zn650       O661   2.003       .  S
Zn651       O652   1.957       .  S
Zn651       O659   2.025       .  S
Zn651       O662   2.006       .  S
Zn651       O663   2.009       .  S
O653        C665   1.275       .  A
O654        C666   1.274       .  A
O655        C667   1.272       .  A
O656        C665   1.274       .  A
O657        C667   1.275       .  A
O658        C666   1.271       .  A
O659        C668   1.273       .  A
O660        C669   1.275       .  A
O661        C668   1.272       .  A
O662        C669   1.273       .  A
O663        C670   1.272       .  A
O664        C670   1.274       .  A
C665       C1239   1.486       .  S
C666       C1225   1.478       .  S
C667       C1267   1.484       .  S
C668       C1298   1.480       .  S
C669       C1281   1.487       .  S
C670       C1256   1.476       .  S
N671        C675   1.358       .  A
N671        C672   1.358       .  A
N671       C1253   1.444       .  S
C672       C1998   1.497       .  S
C672        C673   1.384       .  A
C673        C674   1.382       .  A
C673        H676   1.082       .  S
C674        C675   1.383       .  A
C674        H677   1.082       .  S
C675       C1211   1.496       .  S
N678        C682   1.358       .  A
N678        C679   1.358       .  A
N678       C1228   1.445       .  S
C679       C2807   1.493       .  S
C679        C680   1.382       .  A
C680        C681   1.380       .  A
C680        H683   1.082       .  S
C681        C682   1.383       .  A
C681        H684   1.082       .  S
C682       C2502   1.493       .  S
N685        C689   1.360       .  A
N685        C686   1.359       .  A
N685       C1242   1.452       .  S
C686       C1984   1.488       .  S
C686        C687   1.382       .  A
C687        C688   1.378       .  A
C687        H690   1.082       .  S
C688        C689   1.383       .  A
C688        H691   1.082       .  S
C689       C2793   1.491       .  S
N692        C696   1.362       .  A
N692        C693   1.364       .  A
N692       C1270   1.449       .  S
C693       C2026   1.503       .  S
C693        C694   1.385       .  A
C694        C695   1.375       .  A
C694        H697   1.082       .  S
C695        C696   1.382       .  A
C695        H698   1.082       .  S
C696       C2527   1.498       .  S
N699        C703   1.359       .  A
N699        C700   1.361       .  A
N699       C1295   1.448       .  S
C700       C2488   1.499       .  S
C700        C701   1.385       .  A
C701        C702   1.377       .  A
C701        H704   1.082       .  S
C702        C703   1.382       .  A
C702        H705   1.082       .  S
C703       C1197   1.494       .  S
N706        C710   1.362       .  A
N706        C707   1.364       .  A
N706       C1284   1.450       .  S
C707       C2782   1.503       .  S
C707        C708   1.384       .  A
C708        C709   1.377       .  A
C708        H711   1.082       .  S
C709        C710   1.383       .  A
C709        H712   1.082       .  S
C710       C1183   1.500       .  S
Zn713       O717   1.966       .  S
Zn713       O718   2.018       .  S
Zn713       O722   2.018       .  S
Zn713       O729   2.016       .  S
Zn714       O717   1.956       .  S
Zn714       O719   2.026       .  S
Zn714       O721   2.013       .  S
Zn714       O725   2.025   1_545  S
Zn715       O717   1.965       .  S
Zn715       O720   2.046       .  S
Zn715       O723   2.048       .  S
Zn715       O726   2.056   1_545  S
Zn716       O717   1.952   1_565  S
Zn716       O724   1.998       .  S
Zn716       O727   2.002       .  S
Zn716       O728   2.002       .  S
O718        C730   1.273       .  A
O719        C731   1.274       .  A
O720        C732   1.277       .  A
O721        C730   1.274       .  A
O722        C732   1.274       .  A
O723        C731   1.279       .  A
O724        C733   1.272       .  A
O725        C734   1.275       .  A
O726        C733   1.279       .  A
O727        C734   1.270       .  A
O728        C735   1.271       .  A
O729        C735   1.272   1_545  A
C730       C1172   1.487       .  S
C731       C1186   1.506       .  S
C732       C1155   1.484       .  S
C733       C1214   1.498       .  S
C734       C1200   1.489       .  S
C735       C1144   1.477       .  S
Zn736       O740   1.946       .  S
Zn736       O741   2.001       .  S
Zn736       O745   2.001       .  S
Zn736       O752   1.991       .  S
Zn737       O740   1.951       .  S
Zn737       O742   1.993       .  S
Zn737       O744   2.007       .  S
Zn737       O748   2.010       .  S
Zn738       O740   1.956       .  S
Zn738       O743   2.020       .  S
Zn738       O746   2.004       .  S
Zn738       O749   2.020       .  S
Zn739       O740   1.953       .  S
Zn739       O747   2.000       .  S
Zn739       O750   2.012       .  S
Zn739       O751   2.019       .  S
O741        C753   1.271       .  A
O742        C754   1.271       .  A
O743        C755   1.273       .  A
O744        C753   1.272       .  A
O745        C755   1.271       .  A
O746        C754   1.272       .  A
O747        C756   1.272       .  A
O748        C757   1.272       .  A
O749        C756   1.274       .  A
O750        C757   1.272       .  A
O751        C758   1.274       .  A
O752        C758   1.270       .  A
C753       C1071   1.477       .  S
C754       C1085   1.473       .  S
C755       C1099   1.475       .  S
C756       C1060   1.481       .  S
C757       C1113   1.477       .  S
C758       C1127   1.480       .  S
N759        C763   1.358       .  A
N759        C760   1.358       .  A
N759       C1116   1.445       .  S
C760       C2572   1.493       .  S
C760        C761   1.382       .  A
C761        C762   1.381       .  A
C761        H764   1.082       .  S
C762        C763   1.384       .  A
C762        H765   1.082       .  S
C763       C2149   1.496       .  S
N766        C770   1.358       .  A
N766        C767   1.357       .  A
N766       C1074   1.450       .  S
C767       C1141   1.487       .  S
C767        C768   1.382       .  A
C768        C769   1.378       .  A
C768        H771   1.082       .  S
C769        C770   1.384       .  A
C769        H772   1.082       .  S
C770       C2597   1.490       .  S
N773        C777   1.358       .  A
N773        C774   1.359       .  A
N773       C1088   1.443       .  S
C774       C1043   1.500       .  S
C774        C775   1.385       .  A
C775        C776   1.381       .  A
C775        H778   1.082       .  S
C776        C777   1.383       .  A
C776        H779   1.082       .  S
C777       C2586   1.498       .  S
N780        C784   1.358       .  A
N780        C781   1.356       .  A
N780       C1102   1.443       .  S
C781       C1029   1.493       .  S
C781        C782   1.383       .  A
C782        C783   1.381       .  A
C782        H785   1.082       .  S
C783        C784   1.383       .  A
C783        H786   1.082       .  S
C784       C1158   1.491       .  S
N787        C791   1.363       .  A
N787        C788   1.360       .  A
N787       C1057   1.447       .  S
C788       C1018   1.496       .  S
C788        C789   1.382       .  A
C789        C790   1.378       .  A
C789        H792   1.082       .  S
C790        C791   1.385       .  A
C790        H793   1.082       .  S
C791       C2166   1.502       .  S
N794        C798   1.361       .  A
N794        C795   1.362       .  A
N794       C1130   1.448       .  S
C795       C1169   1.498       .  S
C795        C796   1.384       .  A
C796        C797   1.375       .  A
C796        H799   1.082       .  S
C797        C798   1.382       .  A
C797        H800   1.082       .  S
C798       C2177   1.496       .  S
Zn801       O805   1.952       .  S
Zn801       O806   2.022       .  S
Zn801       O810   2.023       .  S
Zn801       O817   2.002       .  S
Zn802       O805   1.947       .  S
Zn802       O807   1.997       .  S
Zn802       O809   2.002       .  S
Zn802       O813   2.020       .  S
Zn803       O805   1.951       .  S
Zn803       O808   2.009       .  S
Zn803       O811   2.017       .  S
Zn803       O814   1.999       .  S
Zn804       O805   1.954       .  S
Zn804       O812   2.021       .  S
Zn804       O815   2.017       .  S
Zn804       O816   2.006       .  S
O806        C818   1.274       .  A
O807        C819   1.272       .  A
O808        C820   1.271       .  A
O809        C818   1.271       .  A
O810        C820   1.274       .  A
O811        C819   1.275       .  A
O812        C821   1.275       .  A
O813        C822   1.274       .  A
O814        C821   1.271       .  A
O815        C822   1.273       .  A
O816        C823   1.272       .  A
O817        C823   1.272       .  A
C818        C987   1.505       .  S
C819        C973   1.482       .  S
C820        C931   1.496       .  S
C821       C1001   1.501       .  S
C822        C959   1.493       .  S
C823        C945   1.508       .  S
N824        C828   1.359       .  A
N824        C825   1.359       .  A
N824        C976   1.448       .  S
C825       C2068   1.494       .  S
C825        C826   1.385       .  A
C826        C827   1.378       .  A
C826        H829   1.082       .  S
C827        C828   1.381       .  A
C827        H830   1.082       .  S
C828        C917   1.491       .  S
N831        C835   1.361       .  A
N831        C832   1.363       .  A
N831        C962   1.451       .  S
C832       C1312   1.499       .  S
C832        C833   1.384       .  A
C833        C834   1.378       .  A
C833        H836   1.082       .  S
C834        C835   1.382       .  A
C834        H837   1.082       .  S
C835        C906   1.495       .  S
N838        C842   1.359       .  A
N838        C839   1.359       .  A
N838       C1004   1.444       .  S
C839        C889   1.503       .  S
C839        C840   1.385       .  A
C840        C841   1.383       .  A
C840        H843   1.082       .  S
C841        C842   1.383       .  A
C841        H844   1.082       .  S
C842       C2684   1.498       .  S
N845        C849   1.359       .  A
N845        C846   1.358       .  A
N845        C948   1.443       .  S
C846       C1326   1.493       .  S
C846        C847   1.381       .  A
C847        C848   1.382       .  A
C847        H850   1.082       .  S
C848        C849   1.385       .  A
C848        H851   1.082       .  S
C849       C2726   1.500       .  S
N852        C856   1.359       .  A
N852        C853   1.361       .  A
N852        C934   1.451       .  S
C853       C2079   1.494       .  S
C853        C854   1.384       .  A
C854        C855   1.375       .  A
C854        H857   1.082       .  S
C855        C856   1.381       .  A
C855        H858   1.082       .  S
C856       C2712   1.488       .  S
N859        C863   1.356       .  A
N859        C860   1.357       .  A
N859        C990   1.449       .  S
C860       C2110   1.485       .  S
C860        C861   1.383       .  A
C861        C862   1.378       .  A
C861        H864   1.082       .  S
C862        C863   1.382       .  A
C862        H865   1.082       .  S
C863       C1340   1.485       .  S
Zn866       O870   1.971   1_655  S
Zn866       O871   2.017   1_655  S
Zn866       O875   2.036       .  S
Zn866       O882   2.032       .  S
Zn867       O870   1.961       .  S
Zn867       O872   2.027       .  S
Zn867       O874   2.019       .  S
Zn867       O878   2.028       .  S
Zn868       O870   1.960   1_655  S
Zn868       O873   2.020       .  S
Zn868       O876   2.024   1_655  S
Zn868       O879   2.005       .  S
Zn869       O870   1.974   1_655  S
Zn869       O877   2.042       .  S
Zn869       O880   2.051       .  S
Zn869       O881   2.038       .  S
O871        C883   1.273       .  A
O872        C884   1.274       .  A
O873        C885   1.274       .  A
O874        C883   1.275       .  A
O875        C885   1.276       .  A
O876        C884   1.273       .  A
O877        C886   1.277       .  A
O878        C887   1.275       .  A
O879        C886   1.272       .  A
O880        C887   1.277   1_655  A
O881        C888   1.276       .  A
O882        C888   1.275       .  A
C883       C1032   1.494       .  S
C884       C1015   1.511       .  S
C885       C1046   1.495       .  S
C886        C920   1.484       .  S
C887        C892   1.494       .  S
C888        C903   1.488       .  S
C889        C890   1.415       .  A
C889        C894   1.417       .  A
C890        C891   1.416       .  A
C890        C895   1.448       .  S
C891        C892   1.413       .  A
C891        C898   1.451       .  S
C892        C893   1.414       .  A
C893        C894   1.415       .  A
C893        C896   1.451       .  S
C894        C897   1.451       .  S
C895        N902   1.157       .  T
C896        N901   1.157       .  T
C897        N899   1.157       .  T
C898        N900   1.157   1_455  T
C903        C904   1.412       .  A
C903        C908   1.410       .  A
C904        C905   1.413       .  A
C904        C909   1.450       .  S
C905        C906   1.415       .  A
C905        C912   1.451       .  S
C906        C907   1.412       .  A
C907        C908   1.412       .  A
C907        C910   1.449       .  S
C908        C911   1.446       .  S
C909        N916   1.157   1_655  T
C910        N915   1.157       .  T
C911        N913   1.155       .  T
C912        N914   1.157       .  T
C917        C918   1.411       .  A
C917        C922   1.414       .  A
C918        C919   1.411       .  A
C918        C923   1.450       .  S
C919        C920   1.411       .  A
C919        C926   1.446       .  S
C920        C921   1.412       .  A
C921        C922   1.410       .  A
C921        C924   1.452       .  S
C922        C925   1.451       .  S
C923        N930   1.157       .  T
C924        N929   1.157       .  T
C925        N927   1.157       .  T
C926        N928   1.155       .  T
C931        C932   1.416       .  A
C931        C936   1.418       .  A
C932        C933   1.411       .  A
C932        C937   1.453       .  S
C933        C934   1.414       .  A
C933        C940   1.448       .  S
C934        C935   1.412       .  A
C935        C936   1.412       .  A
C935        C938   1.448       .  S
C936        C939   1.452       .  S
C937        N944   1.158       .  T
C938        N943   1.157       .  T
C939        N941   1.158       .  T
C940        N942   1.157       .  T
C945        C946   1.425       .  A
C945        C950   1.426       .  A
C946        C947   1.410       .  A
C946        C951   1.454       .  S
C947        C948   1.407       .  A
C947        C954   1.448       .  S
C948        C949   1.405       .  A
C949        C950   1.411       .  A
C949        C952   1.448       .  S
C950        C953   1.452       .  S
C951        N958   1.158       .  T
C952        N957   1.157       .  T
C953        N955   1.158       .  T
C954        N956   1.157       .  T
C959        C960   1.415       .  A
C959        C964   1.415       .  A
C960        C961   1.411       .  A
C960        C965   1.452       .  S
C961        C962   1.414       .  A
C961        C968   1.448       .  S
C962        C963   1.412       .  A
C963        C964   1.410       .  A
C963        C966   1.448       .  S
C964        C967   1.450       .  S
C965        N972   1.158       .  T
C966        N971   1.157       .  T
C967        N969   1.157       .  T
C968        N970   1.157       .  T
C973        C974   1.415       .  A
C973        C978   1.409       .  A
C974        C975   1.410       .  A
C974        C979   1.453       .  S
C975        C976   1.413       .  A
C975        C982   1.448       .  S
C976        C977   1.413       .  A
C977        C978   1.406       .  A
C977        C980   1.448       .  S
C978        C981   1.450       .  S
C979        N986   1.158       .  T
C980        N985   1.157       .  T
C981        N983   1.156       .  T
C982        N984   1.157       .  T
C987        C988   1.423       .  A
C987        C992   1.422       .  A
C988        C989   1.410       .  A
C988        C993   1.452       .  S
C989        C990   1.408       .  A
C989        C996   1.449       .  S
C990        C991   1.410       .  A
C991        C992   1.414       .  A
C991        C994   1.448       .  S
C992        C995   1.452       .  S
C993       N1000   1.157       .  T
C994        N999   1.157       .  T
C995        N997   1.158       .  T
C996        N998   1.157       .  T
C1001      C1002   1.420       .  A
C1001      C1006   1.422       .  A
C1002      C1003   1.410   1_655  A
C1002      C1007   1.451       .  S
C1003      C1004   1.409       .  A
C1003      C1010   1.449       .  S
C1004      C1005   1.407       .  A
C1005      C1006   1.409   1_455  A
C1005      C1008   1.449       .  S
C1006      C1009   1.451       .  S
C1007      N1014   1.157       .  T
C1008      N1013   1.157       .  T
C1009      N1011   1.157       .  T
C1010      N1012   1.157       .  T
C1015      C1016   1.424       .  A
C1015      C1020   1.425       .  A
C1016      C1017   1.414       .  A
C1016      C1021   1.452       .  S
C1017      C1018   1.411       .  A
C1017      C1024   1.452       .  S
C1018      C1019   1.409       .  A
C1019      C1020   1.415       .  A
C1019      C1022   1.450       .  S
C1020      C1023   1.451       .  S
C1021      N1028   1.157       .  T
C1022      N1027   1.157       .  T
C1023      N1025   1.157       .  T
C1024      N1026   1.157       .  T
C1029      C1030   1.413       .  A
C1029      C1034   1.412       .  A
C1030      C1031   1.412       .  A
C1030      C1035   1.448       .  S
C1031      C1032   1.416       .  A
C1031      C1038   1.453       .  S
C1032      C1033   1.417       .  A
C1033      C1034   1.412       .  A
C1033      C1036   1.451       .  S
C1034      C1037   1.452       .  S
C1035      N1042   1.157       .  T
C1036      N1041   1.157       .  T
C1037      N1039   1.157       .  T
C1038      N1040   1.158       .  T
C1043      C1044   1.413       .  A
C1043      C1048   1.417       .  A
C1044      C1045   1.412       .  A
C1044      C1049   1.449       .  S
C1045      C1046   1.415       .  A
C1045      C1052   1.451   1_655  S
C1046      C1047   1.415       .  A
C1047      C1048   1.414       .  A
C1047      C1050   1.451       .  S
C1048      C1051   1.451       .  S
C1049      N1056   1.157       .  T
C1050      N1055   1.157       .  T
C1051      N1053   1.157       .  T
C1052      N1054   1.157       .  T
C1057      C1058   1.411       .  A
C1057      C1062   1.416       .  A
C1058      C1059   1.408       .  A
C1058      C1063   1.448       .  S
C1059      C1060   1.411       .  A
C1059      C1066   1.448       .  S
C1060      C1061   1.410       .  A
C1061      C1062   1.410       .  A
C1061      C1064   1.452       .  S
C1062      C1065   1.447       .  S
C1063      N1070   1.157       .  T
C1064      N1069   1.157       .  T
C1065      N1067   1.157       .  T
C1066      N1068   1.156       .  T
C1071      C1072   1.410       .  A
C1071      C1076   1.409       .  A
C1072      C1073   1.408       .  A
C1072      C1077   1.454       .  S
C1073      C1074   1.416   1_545  A
C1073      C1080   1.447   1_545  S
C1074      C1075   1.415       .  A
C1075      C1076   1.410   1_565  A
C1075      C1078   1.447       .  S
C1076      C1079   1.452       .  S
C1077      N1084   1.158       .  T
C1078      N1083   1.157       .  T
C1079      N1081   1.157       .  T
C1080      N1082   1.157       .  T
C1085      C1086   1.410       .  A
C1085      C1090   1.409       .  A
C1086      C1087   1.406   1_455  A
C1086      C1091   1.453       .  S
C1087      C1088   1.413       .  A
C1087      C1094   1.449       .  S
C1088      C1089   1.412       .  A
C1089      C1090   1.407   1_655  A
C1089      C1092   1.448       .  S
C1090      C1093   1.449       .  S
C1091      N1098   1.157       .  T
C1092      N1097   1.157       .  T
C1093      N1095   1.156       .  T
C1094      N1096   1.157       .  T
C1099      C1100   1.408       .  A
C1099      C1104   1.408       .  A
C1100      C1101   1.407       .  A
C1100      C1105   1.450       .  S
C1101      C1102   1.410       .  A
C1101      C1108   1.446       .  S
C1102      C1103   1.413       .  A
C1103      C1104   1.410       .  A
C1103      C1106   1.446       .  S
C1104      C1107   1.450       .  S
C1105      N1112   1.157       .  T
C1106      N1111   1.157       .  T
C1107      N1109   1.157       .  T
C1108      N1110   1.157       .  T
C1113      C1114   1.409       .  A
C1113      C1118   1.409       .  A
C1114      C1115   1.410   1_554  A
C1114      C1119   1.449       .  S
C1115      C1116   1.412       .  A
C1115      C1122   1.447       .  S
C1116      C1117   1.413       .  A
C1117      C1118   1.408   1_556  A
C1117      C1120   1.446       .  S
C1118      C1121   1.452       .  S
C1119      N1126   1.157       .  T
C1120      N1125   1.157       .  T
C1121      N1123   1.157       .  T
C1122      N1124   1.157       .  T
C1127      C1128   1.412       .  A
C1127      C1132   1.411       .  A
C1128      C1129   1.408       .  A
C1128      C1133   1.450       .  S
C1129      C1130   1.413       .  A
C1129      C1136   1.448       .  S
C1130      C1131   1.416       .  A
C1131      C1132   1.410       .  A
C1131      C1134   1.448       .  S
C1132      C1135   1.453       .  S
C1133      N1140   1.156       .  T
C1134      N1139   1.157       .  T
C1135      N1137   1.158       .  T
C1136      N1138   1.157       .  T
C1141      C1142   1.411       .  A
C1141      C1146   1.414       .  A
C1142      C1143   1.408       .  A
C1142      C1147   1.449       .  S
C1143      C1144   1.408       .  A
C1143      C1150   1.449       .  S
C1144      C1145   1.412       .  A
C1145      C1146   1.409       .  A
C1145      C1148   1.451       .  S
C1146      C1149   1.451       .  S
C1147      N1154   1.157       .  T
C1148      N1153   1.157       .  T
C1149      N1151   1.157       .  T
C1150      N1152   1.156       .  T
C1155      C1156   1.411       .  A
C1155      C1160   1.411       .  A
C1156      C1157   1.412       .  A
C1156      C1161   1.450       .  S
C1157      C1158   1.411       .  A
C1157      C1164   1.448       .  S
C1158      C1159   1.413       .  A
C1159      C1160   1.412       .  A
C1159      C1162   1.450       .  S
C1160      C1163   1.449       .  S
C1161      N1168   1.157       .  T
C1162      N1167   1.157       .  T
C1163      N1165   1.157       .  T
C1164      N1166   1.157       .  T
C1169      C1170   1.415       .  A
C1169      C1174   1.418       .  A
C1170      C1171   1.415       .  A
C1170      C1175   1.449       .  S
C1171      C1172   1.415       .  A
C1171      C1178   1.453       .  S
C1172      C1173   1.411       .  A
C1173      C1174   1.409       .  A
C1173      C1176   1.453       .  S
C1174      C1177   1.452       .  S
C1175      N1182   1.157       .  T
C1176      N1181   1.157       .  T
C1177      N1179   1.157       .  T
C1178      N1180   1.158       .  T
C1183      C1184   1.415       .  A
C1183      C1188   1.410       .  A
C1184      C1185   1.413       .  A
C1184      C1189   1.452       .  S
C1185      C1186   1.418       .  A
C1185      C1192   1.451       .  S
C1186      C1187   1.422       .  A
C1187      C1188   1.416       .  A
C1187      C1190   1.449       .  S
C1188      C1191   1.450       .  S
C1189      N1196   1.157       .  T
C1190      N1195   1.157       .  T
C1191      N1193   1.157       .  T
C1192      N1194   1.157       .  T
C1197      C1198   1.415       .  A
C1197      C1202   1.411       .  A
C1198      C1199   1.413       .  A
C1198      C1203   1.451       .  S
C1199      C1200   1.417       .  A
C1199      C1206   1.451       .  S
C1200      C1201   1.410       .  A
C1201      C1202   1.405       .  A
C1201      C1204   1.449       .  S
C1202      C1205   1.448       .  S
C1203      N1210   1.157       .  T
C1204      N1209   1.156       .  T
C1205      N1207   1.157       .  T
C1206      N1208   1.157       .  T
C1211      C1212   1.414       .  A
C1211      C1216   1.411       .  A
C1212      C1213   1.415       .  A
C1212      C1217   1.451       .  S
C1213      C1214   1.416       .  A
C1213      C1220   1.451       .  S
C1214      C1215   1.419       .  A
C1215      C1216   1.412       .  A
C1215      C1218   1.453       .  S
C1216      C1219   1.449       .  S
C1217      N1224   1.157       .  T
C1218      N1223   1.158       .  T
C1219      N1221   1.157       .  T
C1220      N1222   1.157       .  T
C1225      C1226   1.408       .  A
C1225      C1230   1.409       .  A
C1226      C1227   1.409       .  A
C1226      C1231   1.447       .  S
C1227      C1228   1.412       .  A
C1227      C1234   1.447       .  S
C1228      C1229   1.412       .  A
C1229      C1230   1.408       .  A
C1229      C1232   1.447       .  S
C1230      C1233   1.451       .  S
C1231      N1238   1.155       .  T
C1232      N1237   1.157       .  T
C1233      N1235   1.157       .  T
C1234      N1236   1.157       .  T
C1239      C1240   1.410       .  A
C1239      C1244   1.410       .  A
C1240      C1241   1.412       .  A
C1240      C1245   1.452       .  S
C1241      C1242   1.415       .  A
C1241      C1248   1.446       .  S
C1242      C1243   1.413       .  A
C1243      C1244   1.411       .  A
C1243      C1246   1.447       .  S
C1244      C1247   1.448       .  S
C1245      N1252   1.157       .  T
C1246      N1251   1.157       .  T
C1247      N1249   1.156       .  T
C1248      N1250   1.157       .  T
C1253      C1254   1.411       .  A
C1253      C1258   1.412       .  A
C1254      C1255   1.407       .  A
C1254      C1259   1.447       .  S
C1255      C1256   1.409       .  A
C1255      C1262   1.449       .  S
C1256      C1257   1.409       .  A
C1257      C1258   1.409       .  A
C1257      C1260   1.450       .  S
C1258      C1261   1.448       .  S
C1259      N1266   1.157       .  T
C1260      N1265   1.157       .  T
C1261      N1263   1.157       .  T
C1262      N1264   1.156       .  T
C1267      C1268   1.413       .  A
C1267      C1272   1.410       .  A
C1268      C1269   1.409       .  A
C1268      C1273   1.452       .  S
C1269      C1270   1.414       .  A
C1269      C1276   1.449       .  S
C1270      C1271   1.413       .  A
C1271      C1272   1.411       .  A
C1271      C1274   1.448       .  S
C1272      C1275   1.448       .  S
C1273      N1280   1.157       .  T
C1274      N1279   1.157       .  T
C1275      N1277   1.156       .  T
C1276      N1278   1.157       .  T
C1281      C1282   1.413       .  A
C1281      C1286   1.413       .  A
C1282      C1283   1.412   1_565  A
C1282      C1287   1.451       .  S
C1283      C1284   1.415       .  A
C1283      C1290   1.449       .  S
C1284      C1285   1.413       .  A
C1285      C1286   1.408   1_545  A
C1285      C1288   1.449       .  S
C1286      C1289   1.451       .  S
C1287      N1294   1.157       .  T
C1288      N1293   1.157       .  T
C1289      N1291   1.156       .  T
C1290      N1292   1.157       .  T
C1295      C1296   1.417       .  A
C1295      C1300   1.410       .  A
C1296      C1297   1.412       .  A
C1296      C1301   1.449       .  S
C1297      C1298   1.409       .  A
C1297      C1304   1.451       .  S
C1298      C1299   1.409       .  A
C1299      C1300   1.406       .  A
C1299      C1302   1.448       .  S
C1300      C1303   1.448       .  S
C1301      N1308   1.157       .  T
C1302      N1307   1.156       .  T
C1303      N1305   1.157       .  T
C1304      N1306   1.157       .  T
C1309      C1310   1.415       .  A
C1309      C1314   1.415       .  A
C1310      C1311   1.412       .  A
C1310      C1315   1.449       .  S
C1311      C1312   1.411       .  A
C1311      C1318   1.449       .  S
C1312      C1313   1.418       .  A
C1313      C1314   1.414       .  A
C1313      C1316   1.452       .  S
C1314      C1317   1.452       .  S
C1315      N1322   1.156       .  T
C1316      N1321   1.157       .  T
C1317      N1319   1.157       .  T
C1318      N1320   1.157       .  T
C1323      C1324   1.411       .  A
C1323      C1328   1.409       .  A
C1324      C1325   1.413       .  A
C1324      C1329   1.450       .  S
C1325      C1326   1.413       .  A
C1325      C1332   1.450       .  S
C1326      C1327   1.412       .  A
C1327      C1328   1.412       .  A
C1327      C1330   1.448       .  S
C1328      C1331   1.450       .  S
C1329      N1336   1.157       .  T
C1330      N1335   1.157       .  T
C1331      N1333   1.157       .  T
C1332      N1334   1.157       .  T
C1337      C1338   1.410       .  A
C1337      C1342   1.409       .  A
C1338      C1339   1.409       .  A
C1338      C1343   1.452       .  S
C1339      C1340   1.413       .  A
C1339      C1346   1.450       .  S
C1340      C1341   1.413       .  A
C1341      C1342   1.409       .  A
C1341      C1344   1.449       .  S
C1342      C1345   1.452       .  S
C1343      N1350   1.157       .  T
C1344      N1349   1.157       .  T
C1345      N1347   1.157       .  T
C1346      N1348   1.157       .  T
C1351      C1352   1.416       .  A
C1351      C1356   1.418       .  A
C1352      C1353   1.409       .  A
C1352      C1357   1.452       .  S
C1353      C1354   1.414       .  A
C1353      C1360   1.453       .  S
C1354      C1355   1.410       .  A
C1355      C1356   1.410       .  A
C1355      C1358   1.450       .  S
C1356      C1359   1.452       .  S
C1357      N1364   1.157       .  T
C1358      N1363   1.157       .  T
C1359      N1361   1.158       .  T
C1360      N1362   1.157       .  T
C1365      C1366   1.412       .  A
C1365      C1370   1.414       .  A
C1366      C1367   1.412       .  A
C1366      C1371   1.449       .  S
C1367      C1368   1.417       .  A
C1367      C1374   1.453       .  S
C1368      C1369   1.418       .  A
C1369      C1370   1.411       .  A
C1369      C1372   1.452       .  S
C1370      C1373   1.452       .  S
C1371      N1378   1.157       .  T
C1372      N1377   1.157       .  T
C1373      N1375   1.157       .  T
C1374      N1376   1.158       .  T
C1379      C1380   1.420       .  A
C1379      C1384   1.421       .  A
C1380      C1381   1.412       .  A
C1380      C1385   1.452       .  S
C1381      C1382   1.414       .  A
C1381      C1388   1.453       .  S
C1382      C1383   1.410       .  A
C1383      C1384   1.414       .  A
C1383      C1386   1.450       .  S
C1384      C1387   1.451       .  S
C1385      N1392   1.158       .  T
C1386      N1391   1.157       .  T
C1387      N1389   1.157       .  T
C1388      N1390   1.157       .  T
C1393      C1394   1.408       .  A
C1393      C1398   1.410       .  A
C1394      C1395   1.413       .  A
C1394      C1399   1.451       .  S
C1395      C1396   1.420       .  A
C1395      C1402   1.449       .  S
C1396      C1397   1.420       .  A
C1397      C1398   1.410       .  A
C1397      C1400   1.452       .  S
C1398      C1401   1.451       .  S
C1399      N1406   1.157       .  T
C1400      N1405   1.158       .  T
C1401      N1403   1.157       .  T
C1402      N1404   1.157       .  T
C1407      C1408   1.415       .  A
C1407      C1412   1.413       .  A
C1408      C1409   1.412       .  A
C1408      C1413   1.452       .  S
C1409      C1410   1.416       .  A
C1409      C1416   1.452       .  S
C1410      C1411   1.416       .  A
C1411      C1412   1.412       .  A
C1411      C1414   1.453       .  S
C1412      C1415   1.448       .  S
C1413      N1420   1.157       .  T
C1414      N1419   1.158       .  T
C1415      N1417   1.157       .  T
C1416      N1418   1.157       .  T
C1421      C1422   1.408       .  A
C1421      C1426   1.408       .  A
C1422      C1423   1.413       .  A
C1422      C1427   1.452       .  S
C1423      C1424   1.428       .  A
C1423      C1430   1.452       .  S
C1424      C1425   1.426       .  A
C1425      C1426   1.415       .  A
C1425      C1428   1.452       .  S
C1426      C1429   1.450       .  S
C1427      N1434   1.157       .  T
C1428      N1433   1.158       .  T
C1429      N1431   1.157       .  T
C1430      N1432   1.158       .  T
C1435      C1436   1.409       .  A
C1435      C1440   1.409       .  A
C1436      C1437   1.406       .  A
C1436      C1441   1.453       .  S
C1437      C1438   1.413       .  A
C1437      C1444   1.447       .  S
C1438      C1439   1.414       .  A
C1439      C1440   1.411       .  A
C1439      C1442   1.447       .  S
C1440      C1443   1.451       .  S
C1441      N1448   1.157       .  T
C1442      N1447   1.157       .  T
C1443      N1445   1.157       .  T
C1444      N1446   1.157       .  T
C1449      C1450   1.408       .  A
C1449      C1454   1.410       .  A
C1450      C1451   1.407       .  A
C1450      C1455   1.448       .  S
C1451      C1452   1.412       .  A
C1451      C1458   1.448       .  S
C1452      C1453   1.414       .  A
C1453      C1454   1.412       .  A
C1453      C1456   1.447       .  S
C1454      C1457   1.451       .  S
C1455      N1462   1.156       .  T
C1456      N1461   1.157       .  T
C1457      N1459   1.157       .  T
C1458      N1460   1.157       .  T
C1463      C1464   1.411       .  A
C1463      C1468   1.410       .  A
C1464      C1465   1.412   1_545  A
C1464      C1469   1.453       .  S
C1465      C1466   1.415       .  A
C1465      C1472   1.446       .  S
C1466      C1467   1.410       .  A
C1467      C1468   1.408   1_565  A
C1467      C1470   1.448       .  S
C1468      C1471   1.446       .  S
C1469      N1476   1.157       .  T
C1470      N1475   1.157       .  T
C1471      N1473   1.155       .  T
C1472      N1474   1.157       .  T
C1477      C1478   1.416       .  A
C1477      C1482   1.415       .  A
C1478      C1479   1.412       .  A
C1478      C1483   1.448       .  S
C1479      C1480   1.411       .  A
C1479      C1486   1.452       .  S
C1480      C1481   1.412       .  A
C1481      C1482   1.412       .  A
C1481      C1484   1.453       .  S
C1482      C1485   1.448       .  S
C1483      N1490   1.157       .  T
C1484      N1489   1.158       .  T
C1485      N1487   1.157       .  T
C1486      N1488   1.157       .  T
C1491      C1492   1.410       .  A
C1491      C1496   1.408       .  A
C1492      C1493   1.406       .  A
C1492      C1497   1.454       .  S
C1493      C1494   1.413       .  A
C1493      C1500   1.448       .  S
C1494      C1495   1.415       .  A
C1495      C1496   1.410       .  A
C1495      C1498   1.448       .  S
C1496      C1499   1.452       .  S
C1497      N1504   1.157       .  T
C1498      N1503   1.157       .  T
C1499      N1501   1.157       .  T
C1500      N1502   1.157       .  T
C1505      C1506   1.420       .  A
C1505      C1510   1.424       .  A
C1506      C1507   1.396       .  A
C1506      C1511   1.450       .  S
C1507      C1508   1.401       .  A
C1507      C1514   1.446       .  S
C1508      C1509   1.410       .  A
C1509      C1510   1.417       .  A
C1509      C1512   1.447       .  S
C1510      C1513   1.449       .  S
C1511      N1518   1.157       .  T
C1512      N1517   1.157       .  T
C1513      N1515   1.157       .  T
C1514      N1516   1.157       .  T
C1519      C1520   1.410       .  A
C1519      C1524   1.411       .  A
C1520      C1521   1.410       .  A
C1520      C1525   1.451       .  S
C1521      C1522   1.416       .  A
C1521      C1528   1.451       .  S
C1522      C1523   1.415       .  A
C1523      C1524   1.413       .  A
C1523      C1526   1.448       .  S
C1524      C1527   1.451       .  S
C1525      N1532   1.157       .  T
C1526      N1531   1.157       .  T
C1527      N1529   1.157   1_545  T
C1528      N1530   1.157       .  T
C1533      C1534   1.415       .  A
C1533      C1538   1.414       .  A
C1534      C1535   1.408       .  A
C1534      C1539   1.452       .  S
C1535      C1536   1.411       .  A
C1535      C1542   1.452       .  S
C1536      C1537   1.411       .  A
C1537      C1538   1.411       .  A
C1537      C1540   1.452       .  S
C1538      C1541   1.448       .  S
C1539      N1546   1.157       .  T
C1540      N1545   1.158       .  T
C1541      N1543   1.157       .  T
C1542      N1544   1.157       .  T
C1547      C1548   1.418       .  A
C1547      C1552   1.413       .  A
C1548      C1549   1.411       .  A
C1548      C1553   1.452       .  S
C1549      C1550   1.413       .  A
C1549      C1556   1.452       .  S
C1550      C1551   1.415       .  A
C1551      C1552   1.412       .  A
C1551      C1554   1.452       .  S
C1552      C1555   1.449       .  S
C1553      N1560   1.157       .  T
C1554      N1559   1.158       .  T
C1555      N1557   1.157       .  T
C1556      N1558   1.157       .  T
C1561      C1562   1.411       .  A
C1561      C1566   1.411       .  A
C1562      C1563   1.411       .  A
C1562      C1567   1.452       .  S
C1563      C1564   1.414       .  A
C1563      C1570   1.447       .  S
C1564      C1565   1.414       .  A
C1565      C1566   1.409       .  A
C1565      C1568   1.447       .  S
C1566      C1569   1.453       .  S
C1567      N1574   1.157       .  T
C1568      N1573   1.157       .  T
C1569      N1571   1.157       .  T
C1570      N1572   1.157       .  T
C1575      C1576   1.412       .  A
C1575      C1580   1.410       .  A
C1576      C1577   1.410       .  A
C1576      C1581   1.452       .  S
C1577      C1578   1.414       .  A
C1577      C1584   1.449       .  S
C1578      C1579   1.413       .  A
C1579      C1580   1.407       .  A
C1579      C1582   1.448       .  S
C1580      C1583   1.453       .  S
C1581      N1588   1.157       .  T
C1582      N1587   1.157       .  T
C1583      N1585   1.157       .  T
C1584      N1586   1.157       .  T
C1589      C1590   1.410       .  A
C1589      C1594   1.410       .  A
C1590      C1591   1.406   1_655  A
C1590      C1595   1.453       .  S
C1591      C1592   1.414       .  A
C1591      C1598   1.448       .  S
C1592      C1593   1.415       .  A
C1593      C1594   1.410   1_455  A
C1593      C1596   1.449       .  S
C1594      C1597   1.452       .  S
C1595      N1602   1.157       .  T
C1596      N1601   1.157       .  T
C1597      N1599   1.158       .  T
C1598      N1600   1.157       .  T
C1603      C1604   1.411       .  A
C1603      C1608   1.411       .  A
C1604      C1605   1.409   1_556  A
C1604      C1609   1.452       .  S
C1605      C1606   1.413       .  A
C1605      C1612   1.448       .  S
C1606      C1607   1.415       .  A
C1607      C1608   1.411   1_554  A
C1607      C1610   1.448       .  S
C1608      C1611   1.452       .  S
C1609      N1616   1.157       .  T
C1610      N1615   1.157       .  T
C1611      N1613   1.157       .  T
C1612      N1614   1.157       .  T
C1617      C1618   1.412       .  A
C1617      C1622   1.411       .  A
C1618      C1619   1.410       .  A
C1618      C1623   1.451       .  S
C1619      C1620   1.413       .  A
C1619      C1626   1.448       .  S
C1620      C1621   1.415       .  A
C1621      C1622   1.410       .  A
C1621      C1624   1.449       .  S
C1622      C1625   1.452       .  S
C1623      N1630   1.157       .  T
C1624      N1629   1.157       .  T
C1625      N1627   1.157       .  T
C1626      N1628   1.157       .  T
C1631      C1632   1.410       .  A
C1631      C1636   1.408       .  A
C1632      C1633   1.409       .  A
C1632      C1637   1.452       .  S
C1633      C1634   1.414   1_565  A
C1633      C1640   1.448   1_565  S
C1634      C1635   1.414   1_545  A
C1635      C1636   1.407       .  A
C1635      C1638   1.447   1_565  S
C1636      C1639   1.453       .  S
C1637      N1644   1.158       .  T
C1638      N1643   1.157       .  T
C1639      N1641   1.157       .  T
C1640      N1642   1.157       .  T
C1645      C1646   1.411       .  A
C1645      C1650   1.412       .  A
C1646      C1647   1.409       .  A
C1646      C1651   1.453       .  S
C1647      C1648   1.414       .  A
C1647      C1654   1.448       .  S
C1648      C1649   1.416       .  A
C1649      C1650   1.410       .  A
C1649      C1652   1.452       .  S
C1650      C1653   1.452       .  S
C1651      N1658   1.157   1_455  T
C1652      N1657   1.157       .  T
C1653      N1655   1.157       .  T
C1654      N1656   1.157       .  T
C1659      C1660   1.410       .  A
C1659      C1664   1.408       .  A
C1660      C1661   1.408       .  A
C1660      C1665   1.453       .  S
C1661      C1662   1.416       .  A
C1661      C1668   1.451       .  S
C1662      C1663   1.414       .  A
C1663      C1664   1.409       .  A
C1663      C1666   1.448       .  S
C1664      C1667   1.452       .  S
C1665      N1672   1.157       .  T
C1666      N1671   1.157       .  T
C1667      N1669   1.157       .  T
C1668      N1670   1.157       .  T
C1673      C1674   1.412       .  A
C1673      C1678   1.413       .  A
C1674      C1675   1.414       .  A
C1674      C1679   1.451       .  S
C1675      C1676   1.415       .  A
C1675      C1682   1.448       .  S
C1676      C1677   1.418       .  A
C1677      C1678   1.414       .  A
C1677      C1680   1.451       .  S
C1678      C1681   1.452       .  S
C1679      N1686   1.157       .  T
C1680      N1685   1.157       .  T
C1681      N1683   1.157       .  T
C1682      N1684   1.157       .  T
C1687      C1688   1.413       .  A
C1687      C1692   1.409       .  A
C1688      C1689   1.413       .  A
C1688      C1693   1.452       .  S
C1689      C1690   1.420       .  A
C1689      C1696   1.452       .  S
C1690      C1691   1.419       .  A
C1691      C1692   1.408       .  A
C1691      C1694   1.453       .  S
C1692      C1695   1.449       .  S
C1693      N1700   1.157       .  T
C1694      N1699   1.158       .  T
C1695      N1697   1.157       .  T
C1696      N1698   1.158       .  T
C1701      C1702   1.410       .  A
C1701      C1706   1.416       .  A
C1702      C1703   1.410       .  A
C1702      C1707   1.449       .  S
C1703      C1704   1.418       .  A
C1703      C1710   1.452       .  S
C1704      C1705   1.416       .  A
C1705      C1706   1.412       .  A
C1705      C1708   1.452       .  S
C1706      C1709   1.452       .  S
C1707      N1714   1.157       .  T
C1708      N1713   1.157       .  T
C1709      N1711   1.157       .  T
C1710      N1712   1.157       .  T
C1715      C1716   1.414       .  A
C1715      C1720   1.409       .  A
C1716      C1717   1.414       .  A
C1716      C1721   1.452       .  S
C1717      C1718   1.420       .  A
C1717      C1724   1.451       .  S
C1718      C1719   1.422       .  A
C1719      C1720   1.411       .  A
C1719      C1722   1.452       .  S
C1720      C1723   1.450       .  S
C1721      N1728   1.157       .  T
C1722      N1727   1.158   1_655  T
C1723      N1725   1.157       .  T
C1724      N1726   1.157       .  T
C1729      C1730   1.427       .  A
C1729      C1734   1.426       .  A
C1730      C1731   1.414       .  A
C1730      C1735   1.449       .  S
C1731      C1732   1.406       .  A
C1731      C1738   1.447       .  S
C1732      C1733   1.401       .  A
C1733      C1734   1.403       .  A
C1733      C1736   1.447       .  S
C1734      C1737   1.451       .  S
C1735      N1742   1.157       .  T
C1736      N1741   1.157       .  T
C1737      N1739   1.158       .  T
C1738      N1740   1.157       .  T
C1743      C1744   1.411       .  A
C1743      C1748   1.411       .  A
C1744      C1745   1.410       .  A
C1744      C1749   1.452       .  S
C1745      C1746   1.415       .  A
C1745      C1752   1.448       .  S
C1746      C1747   1.415       .  A
C1747      C1748   1.410       .  A
C1747      C1750   1.447       .  S
C1748      C1751   1.453       .  S
C1749      N1756   1.158       .  T
C1750      N1755   1.157       .  T
C1751      N1753   1.158       .  T
C1752      N1754   1.157       .  T
C1757      C1758   1.413       .  A
C1757      C1762   1.414       .  A
C1758      C1759   1.409   1_655  A
C1758      C1763   1.448       .  S
C1759      C1760   1.410       .  A
C1759      C1766   1.452       .  S
C1760      C1761   1.410       .  A
C1761      C1762   1.409   1_455  A
C1761      C1764   1.452       .  S
C1762      C1765   1.448       .  S
C1763      N1770   1.157       .  T
C1764      N1769   1.157       .  T
C1765      N1767   1.157       .  T
C1766      N1768   1.157       .  T
C1771      C1772   1.409       .  A
C1771      C1776   1.410       .  A
C1772      C1773   1.408       .  A
C1772      C1777   1.452       .  S
C1773      C1774   1.415       .  A
C1773      C1780   1.448       .  S
C1774      C1775   1.412       .  A
C1775      C1776   1.409       .  A
C1775      C1778   1.448       .  S
C1776      C1779   1.451       .  S
C1777      N1784   1.157       .  T
C1778      N1783   1.157       .  T
C1779      N1781   1.157       .  T
C1780      N1782   1.157       .  T
C1785      C1786   1.411       .  A
C1785      C1790   1.411       .  A
C1786      C1787   1.411       .  A
C1786      C1791   1.452       .  S
C1787      C1788   1.415       .  A
C1787      C1794   1.448       .  S
C1788      C1789   1.415       .  A
C1789      C1790   1.411       .  A
C1789      C1792   1.448       .  S
C1790      C1793   1.452       .  S
C1791      N1798   1.157       .  T
C1792      N1797   1.157       .  T
C1793      N1795   1.157       .  T
C1794      N1796   1.157       .  T
C1799      C1800   1.411       .  A
C1799      C1804   1.410       .  A
C1800      C1801   1.410       .  A
C1800      C1805   1.452       .  S
C1801      C1802   1.413       .  A
C1801      C1808   1.448       .  S
C1802      C1803   1.414       .  A
C1803      C1804   1.411       .  A
C1803      C1806   1.447       .  S
C1804      C1807   1.452       .  S
C1805      N1812   1.157       .  T
C1806      N1811   1.157       .  T
C1807      N1809   1.157       .  T
C1808      N1810   1.157       .  T
C1813      C1814   1.421       .  A
C1813      C1818   1.420       .  A
C1814      C1815   1.414       .  A
C1814      C1819   1.453       .  S
C1815      C1816   1.412       .  A
C1815      C1822   1.449       .  S
C1816      C1817   1.414       .  A
C1817      C1818   1.411       .  A
C1817      C1820   1.453       .  S
C1818      C1821   1.452       .  S
C1819      N1826   1.158       .  T
C1820      N1825   1.157       .  T
C1821      N1823   1.157       .  T
C1822      N1824   1.157       .  T
C1827      C1828   1.417       .  A
C1827      C1832   1.414       .  A
C1828      C1829   1.412       .  A
C1828      C1833   1.453       .  S
C1829      C1830   1.412       .  A
C1829      C1836   1.449       .  S
C1830      C1831   1.418       .  A
C1831      C1832   1.414       .  A
C1831      C1834   1.451       .  S
C1832      C1835   1.452       .  S
C1833      N1840   1.158       .  T
C1834      N1839   1.157       .  T
C1835      N1837   1.158       .  T
C1836      N1838   1.157       .  T
C1841      C1842   1.424       .  A
C1841      C1846   1.423       .  A
C1842      C1843   1.410       .  A
C1842      C1847   1.452       .  S
C1843      C1844   1.410       .  A
C1843      C1850   1.453       .  S
C1844      C1845   1.408       .  A
C1845      C1846   1.412       .  A
C1845      C1848   1.450       .  S
C1846      C1849   1.452       .  S
C1847      N1854   1.157       .  T
C1848      N1853   1.157       .  T
C1849      N1851   1.158       .  T
C1850      N1852   1.157       .  T
C1855      C1856   1.414       .  A
C1855      C1860   1.413       .  A
C1856      C1857   1.412       .  A
C1856      C1861   1.450       .  S
C1857      C1858   1.411       .  A
C1857      C1864   1.451       .  S
C1858      C1859   1.411       .  A
C1859      C1860   1.412       .  A
C1859      C1862   1.452       .  S
C1860      C1863   1.448       .  S
C1861      N1868   1.157       .  T
C1862      N1867   1.157       .  T
C1863      N1865   1.157       .  T
C1864      N1866   1.157       .  T
C1869      C1870   1.410       .  A
C1869      C1874   1.411       .  A
C1870      C1871   1.409       .  A
C1870      C1875   1.451       .  S
C1871      C1872   1.415       .  A
C1871      C1878   1.451       .  S
C1872      C1873   1.412       .  A
C1873      C1874   1.411       .  A
C1873      C1876   1.449       .  S
C1874      C1877   1.450       .  S
C1875      N1882   1.157       .  T
C1876      N1881   1.157       .  T
C1877      N1879   1.157       .  T
C1878      N1880   1.157       .  T
C1883      C1884   1.411       .  A
C1883      C1888   1.418       .  A
C1884      C1885   1.409       .  A
C1884      C1889   1.449       .  S
C1885      C1886   1.414       .  A
C1885      C1892   1.449   1_556  S
C1886      C1887   1.414       .  A
C1887      C1888   1.412       .  A
C1887      C1890   1.452       .  S
C1888      C1891   1.452       .  S
C1889      N1896   1.157       .  T
C1890      N1895   1.158       .  T
C1891      N1893   1.157       .  T
C1892      N1894   1.157       .  T
C1897      C1898   1.410       .  A
C1897      C1902   1.411       .  A
C1898      C1899   1.405       .  A
C1898      C1903   1.451       .  S
C1899      C1900   1.409       .  A
C1899      C1906   1.447       .  S
C1900      C1901   1.411       .  A
C1901      C1902   1.408       .  A
C1901      C1904   1.446       .  S
C1902      C1905   1.450       .  S
C1903      N1910   1.157       .  T
C1904      N1909   1.157       .  T
C1905      N1907   1.157       .  T
C1906      N1908   1.157       .  T
C1911      C1912   1.416       .  A
C1911      C1916   1.417       .  A
C1912      C1913   1.411       .  A
C1912      C1917   1.453       .  S
C1913      C1914   1.413       .  A
C1913      C1920   1.447       .  S
C1914      C1915   1.411       .  A
C1915      C1916   1.409       .  A
C1915      C1918   1.448       .  S
C1916      C1919   1.452       .  S
C1917      N1924   1.158       .  T
C1918      N1923   1.157       .  T
C1919      N1921   1.157       .  T
C1920      N1922   1.157       .  T
C1925      C1926   1.417       .  A
C1925      C1930   1.417       .  A
C1926      C1927   1.410       .  A
C1926      C1931   1.453       .  S
C1927      C1928   1.412       .  A
C1927      C1934   1.448       .  S
C1928      C1929   1.413       .  A
C1929      C1930   1.413       .  A
C1929      C1932   1.448       .  S
C1930      C1933   1.452       .  S
C1931      N1938   1.158       .  T
C1932      N1937   1.157       .  T
C1933      N1935   1.158       .  T
C1934      N1936   1.157       .  T
C1939      C1940   1.417       .  A
C1939      C1944   1.415       .  A
C1940      C1941   1.411       .  A
C1940      C1945   1.453       .  S
C1941      C1942   1.414       .  A
C1941      C1948   1.448       .  S
C1942      C1943   1.413       .  A
C1943      C1944   1.411       .  A
C1943      C1946   1.448       .  S
C1944      C1947   1.450       .  S
C1945      N1952   1.158       .  T
C1946      N1951   1.157       .  T
C1947      N1949   1.157       .  T
C1948      N1950   1.157       .  T
C1953      C1954   1.426       .  A
C1953      C1958   1.426       .  A
C1954      C1955   1.411       .  A
C1954      C1959   1.452       .  S
C1955      C1956   1.406       .  A
C1955      C1962   1.448       .  S
C1956      C1957   1.406       .  A
C1957      C1958   1.412       .  A
C1957      C1960   1.448       .  S
C1958      C1961   1.452       .  S
C1959      N1966   1.157       .  T
C1960      N1965   1.157       .  T
C1961      N1963   1.157       .  T
C1962      N1964   1.157       .  T
C1967      C1968   1.416       .  A
C1967      C1972   1.416       .  A
C1968      C1969   1.412   1_554  A
C1968      C1973   1.450       .  S
C1969      C1970   1.413       .  A
C1969      C1976   1.449       .  S
C1970      C1971   1.415       .  A
C1971      C1972   1.413   1_556  A
C1971      C1974   1.448       .  S
C1972      C1975   1.452       .  S
C1973      N1980   1.157       .  T
C1974      N1979   1.157       .  T
C1975      N1977   1.158       .  T
C1976      N1978   1.157       .  T
C1981      C1982   1.411       .  A
C1981      C1986   1.409       .  A
C1982      C1983   1.412       .  A
C1982      C1987   1.451       .  S
C1983      C1984   1.414       .  A
C1983      C1990   1.450       .  S
C1984      C1985   1.412       .  A
C1985      C1986   1.410       .  A
C1985      C1988   1.449       .  S
C1986      C1989   1.450       .  S
C1987      N1994   1.157       .  T
C1988      N1993   1.157       .  T
C1989      N1991   1.157       .  T
C1990      N1992   1.158       .  T
C1995      C1996   1.412       .  A
C1995      C2000   1.412       .  A
C1996      C1997   1.414       .  A
C1996      C2001   1.451       .  S
C1997      C1998   1.417       .  A
C1997      C2004   1.451       .  S
C1998      C1999   1.412       .  A
C1999      C2000   1.411       .  A
C1999      C2002   1.448       .  S
C2000      C2003   1.452       .  S
C2001      N2008   1.157       .  T
C2002      N2007   1.157       .  T
C2003      N2005   1.157       .  T
C2004      N2006   1.157       .  T
C2009      C2010   1.419       .  A
C2009      C2014   1.420       .  A
C2010      C2011   1.410       .  A
C2010      C2015   1.453       .  S
C2011      C2012   1.413       .  A
C2011      C2018   1.452       .  S
C2012      C2013   1.410       .  A
C2013      C2014   1.412       .  A
C2013      C2016   1.450       .  S
C2014      C2017   1.451       .  S
C2015      N2022   1.158       .  T
C2016      N2021   1.157       .  T
C2017      N2019   1.157       .  T
C2018      N2020   1.157       .  T
C2023      C2024   1.416       .  A
C2023      C2028   1.420       .  A
C2024      C2025   1.412       .  A
C2024      C2029   1.450       .  S
C2025      C2026   1.417       .  A
C2025      C2032   1.453       .  S
C2026      C2027   1.413       .  A
C2027      C2028   1.416       .  A
C2027      C2030   1.450       .  S
C2028      C2031   1.450       .  S
C2029      N2036   1.157       .  T
C2030      N2035   1.157       .  T
C2031      N2033   1.157       .  T
C2032      N2034   1.157       .  T
C2037      C2038   1.415       .  A
C2037      C2042   1.412       .  A
C2038      C2039   1.412       .  A
C2038      C2043   1.451       .  S
C2039      C2040   1.413       .  A
C2039      C2046   1.450       .  S
C2040      C2041   1.416       .  A
C2041      C2042   1.413       .  A
C2041      C2044   1.451       .  S
C2042      C2045   1.449       .  S
C2043      N2050   1.157       .  T
C2044      N2049   1.157       .  T
C2045      N2047   1.157       .  T
C2046      N2048   1.157       .  T
C2051      C2052   1.417       .  A
C2051      C2056   1.416       .  A
C2052      C2053   1.414       .  A
C2052      C2057   1.452       .  S
C2053      C2054   1.413       .  A
C2053      C2060   1.449       .  S
C2054      C2055   1.416       .  A
C2055      C2056   1.412       .  A
C2055      C2058   1.452       .  S
C2056      C2059   1.452       .  S
C2057      N2064   1.158       .  T
C2058      N2063   1.157       .  T
C2059      N2061   1.157       .  T
C2060      N2062   1.157       .  T
C2065      C2066   1.412       .  A
C2065      C2070   1.412       .  A
C2066      C2067   1.412       .  A
C2066      C2071   1.452       .  S
C2067      C2068   1.414       .  A
C2067      C2074   1.448       .  S
C2068      C2069   1.417       .  A
C2069      C2070   1.409       .  A
C2069      C2072   1.452       .  S
C2070      C2073   1.453       .  S
C2071      N2078   1.157       .  T
C2072      N2077   1.157       .  T
C2073      N2075   1.157       .  T
C2074      N2076   1.157       .  T
C2079      C2080   1.417       .  A
C2079      C2084   1.412       .  A
C2080      C2081   1.411       .  A
C2080      C2085   1.452       .  S
C2081      C2082   1.413       .  A
C2081      C2088   1.452       .  S
C2082      C2083   1.414       .  A
C2083      C2084   1.411       .  A
C2083      C2086   1.452       .  S
C2084      C2087   1.449       .  S
C2085      N2092   1.157       .  T
C2086      N2091   1.157       .  T
C2087      N2089   1.157       .  T
C2088      N2090   1.157       .  T
C2093      C2094   1.417       .  A
C2093      C2098   1.413       .  A
C2094      C2095   1.410       .  A
C2094      C2099   1.452       .  S
C2095      C2096   1.415       .  A
C2095      C2102   1.452       .  S
C2096      C2097   1.410       .  A
C2097      C2098   1.408       .  A
C2097      C2100   1.449       .  S
C2098      C2101   1.449       .  S
C2099      N2106   1.158       .  T
C2100      N2105   1.157       .  T
C2101      N2103   1.156       .  T
C2102      N2104   1.157       .  T
C2107      C2108   1.410       .  A
C2107      C2112   1.412       .  A
C2108      C2109   1.409       .  A
C2108      C2113   1.450       .  S
C2109      C2110   1.415       .  A
C2109      C2116   1.452       .  S
C2110      C2111   1.410       .  A
C2111      C2112   1.407       .  A
C2111      C2114   1.448       .  S
C2112      C2115   1.453       .  S
C2113      N2120   1.157       .  T
C2114      N2119   1.157       .  T
C2115      N2117   1.157       .  T
C2116      N2118   1.157       .  T
C2121      C2122   1.418       .  A
C2121      C2126   1.417       .  A
C2122      C2123   1.412       .  A
C2122      C2127   1.451       .  S
C2123      C2124   1.412       .  A
C2123      C2130   1.451       .  S
C2124      C2125   1.411       .  A
C2125      C2126   1.409       .  A
C2125      C2128   1.448       .  S
C2126      C2129   1.453       .  S
C2127      N2134   1.157       .  T
C2128      N2133   1.156       .  T
C2129      N2131   1.158       .  T
C2130      N2132   1.157       .  T
C2135      C2136   1.411       .  A
C2135      C2140   1.408       .  A
C2136      C2137   1.412       .  A
C2136      C2141   1.453       .  S
C2137      C2138   1.424       .  A
C2137      C2144   1.452       .  S
C2138      C2139   1.423       .  A
C2139      C2140   1.413       .  A
C2139      C2142   1.450       .  S
C2140      C2143   1.450       .  S
C2141      N2148   1.157       .  T
C2142      N2147   1.157       .  T
C2143      N2145   1.157       .  T
C2144      N2146   1.157       .  T
C2149      C2150   1.410       .  A
C2149      C2154   1.414       .  A
C2150      C2151   1.413       .  A
C2150      C2155   1.448       .  S
C2151      C2152   1.420       .  A
C2151      C2158   1.453       .  S
C2152      C2153   1.419       .  A
C2153      C2154   1.415       .  A
C2153      C2156   1.451       .  S
C2154      C2157   1.451       .  S
C2155      N2162   1.157       .  T
C2156      N2161   1.158       .  T
C2157      N2159   1.157       .  T
C2158      N2160   1.158       .  T
C2163      C2164   1.420       .  A
C2163      C2168   1.418       .  A
C2164      C2165   1.415       .  A
C2164      C2169   1.450       .  S
C2165      C2166   1.416       .  A
C2165      C2172   1.453       .  S
C2166      C2167   1.412       .  A
C2167      C2168   1.416       .  A
C2167      C2170   1.448       .  S
C2168      C2171   1.449       .  S
C2169      N2176   1.157       .  T
C2170      N2175   1.157       .  T
C2171      N2173   1.157       .  T
C2172      N2174   1.157       .  T
C2177      C2178   1.410       .  A
C2177      C2182   1.413       .  A
C2178      C2179   1.414       .  A
C2178      C2183   1.450       .  S
C2179      C2180   1.423       .  A
C2179      C2186   1.451       .  S
C2180      C2181   1.423       .  A
C2181      C2182   1.412       .  A
C2181      C2184   1.453       .  S
C2182      C2185   1.453       .  S
C2183      N2190   1.157       .  T
C2184      N2189   1.158   1_554  T
C2185      N2187   1.157       .  T
C2186      N2188   1.157       .  T
C2191      C2192   1.412       .  A
C2191      C2196   1.411       .  A
C2192      C2193   1.412       .  A
C2192      C2197   1.452       .  S
C2193      C2194   1.413       .  A
C2193      C2200   1.448       .  S
C2194      C2195   1.416       .  A
C2195      C2196   1.412       .  A
C2195      C2198   1.451       .  S
C2196      C2199   1.451       .  S
C2197      N2204   1.157   1_554  T
C2198      N2203   1.157       .  T
C2199      N2201   1.157       .  T
C2200      N2202   1.157       .  T
C2205      C2206   1.417       .  A
C2205      C2210   1.414       .  A
C2206      C2207   1.412       .  A
C2206      C2211   1.451       .  S
C2207      C2208   1.411       .  A
C2207      C2214   1.451       .  S
C2208      C2209   1.412       .  A
C2209      C2210   1.413       .  A
C2209      C2212   1.452       .  S
C2210      C2213   1.448       .  S
C2211      N2218   1.157       .  T
C2212      N2217   1.157       .  T
C2213      N2215   1.157       .  T
C2214      N2216   1.157       .  T
C2219      C2220   1.414       .  A
C2219      C2224   1.412       .  A
C2220      C2221   1.408       .  A
C2220      C2225   1.452       .  S
C2221      C2222   1.409       .  A
C2221      C2228   1.450       .  S
C2222      C2223   1.411       .  A
C2223      C2224   1.411       .  A
C2223      C2226   1.452       .  S
C2224      C2227   1.449       .  S
C2225      N2232   1.157       .  T
C2226      N2231   1.158       .  T
C2227      N2229   1.157       .  T
C2228      N2230   1.157       .  T
C2233      C2234   1.410       .  A
C2233      C2238   1.411       .  A
C2234      C2235   1.409       .  A
C2234      C2239   1.452       .  S
C2235      C2236   1.415       .  A
C2235      C2242   1.448       .  S
C2236      C2237   1.413       .  A
C2237      C2238   1.408       .  A
C2237      C2240   1.448       .  S
C2238      C2241   1.453       .  S
C2239      N2246   1.157       .  T
C2240      N2245   1.157       .  T
C2241      N2243   1.157       .  T
C2242      N2244   1.157       .  T
C2247      C2248   1.410       .  A
C2247      C2252   1.410       .  A
C2248      C2249   1.411       .  A
C2248      C2253   1.451       .  S
C2249      C2250   1.414       .  A
C2249      C2256   1.448       .  S
C2250      C2251   1.412       .  A
C2251      C2252   1.407       .  A
C2251      C2254   1.448       .  S
C2252      C2255   1.453       .  S
C2253      N2260   1.157       .  T
C2254      N2259   1.157       .  T
C2255      N2257   1.157       .  T
C2256      N2258   1.157       .  T
C2261      C2262   1.411       .  A
C2261      C2266   1.410       .  A
C2262      C2263   1.410       .  A
C2262      C2267   1.452       .  S
C2263      C2264   1.414       .  A
C2263      C2270   1.448       .  S
C2264      C2265   1.415       .  A
C2265      C2266   1.411       .  A
C2265      C2268   1.447       .  S
C2266      C2269   1.452       .  S
C2267      N2274   1.157       .  T
C2268      N2273   1.157       .  T
C2269      N2271   1.157       .  T
C2270      N2272   1.157       .  T
C2275      C2276   1.411       .  A
C2275      C2280   1.412       .  A
C2276      C2277   1.410       .  A
C2276      C2281   1.452       .  S
C2277      C2278   1.415       .  A
C2277      C2284   1.449       .  S
C2278      C2279   1.414       .  A
C2279      C2280   1.410       .  A
C2279      C2282   1.449       .  S
C2280      C2283   1.452       .  S
C2281      N2288   1.157       .  T
C2282      N2287   1.157       .  T
C2283      N2285   1.157       .  T
C2284      N2286   1.157       .  T
C2289      C2290   1.409       .  A
C2289      C2294   1.410       .  A
C2290      C2291   1.408       .  A
C2290      C2295   1.453       .  S
C2291      C2292   1.414   1_556  A
C2291      C2298   1.446   1_556  S
C2292      C2293   1.414   1_554  A
C2293      C2294   1.412       .  A
C2293      C2296   1.447   1_556  S
C2294      C2297   1.451       .  S
C2295      N2302   1.157       .  T
C2296      N2301   1.157       .  T
C2297      N2299   1.157       .  T
C2298      N2300   1.157       .  T
C2303      C2304   1.409       .  A
C2303      C2308   1.408       .  A
C2304      C2305   1.407       .  A
C2304      C2309   1.453       .  S
C2305      C2306   1.414       .  A
C2305      C2312   1.448       .  S
C2306      C2307   1.415       .  A
C2307      C2308   1.407       .  A
C2307      C2310   1.447       .  S
C2308      C2311   1.453       .  S
C2309      N2316   1.158       .  T
C2310      N2315   1.157       .  T
C2311      N2313   1.157       .  T
C2312      N2314   1.157       .  T
C2317      C2318   1.417       .  A
C2317      C2322   1.415       .  A
C2318      C2319   1.409       .  A
C2318      C2323   1.453       .  S
C2319      C2320   1.410       .  A
C2319      C2326   1.449       .  S
C2320      C2321   1.415       .  A
C2321      C2322   1.410       .  A
C2321      C2324   1.452       .  S
C2322      C2325   1.452       .  S
C2323      N2330   1.158       .  T
C2324      N2329   1.157       .  T
C2325      N2327   1.157       .  T
C2326      N2328   1.157       .  T
C2331      C2332   1.414       .  A
C2331      C2336   1.412       .  A
C2332      C2333   1.409       .  A
C2332      C2337   1.452       .  S
C2333      C2334   1.417       .  A
C2333      C2340   1.452       .  S
C2334      C2335   1.416       .  A
C2335      C2336   1.409       .  A
C2335      C2338   1.453       .  S
C2336      C2339   1.449       .  S
C2337      N2344   1.157       .  T
C2338      N2343   1.158       .  T
C2339      N2341   1.157       .  T
C2340      N2342   1.157       .  T
C2345      C2346   1.410       .  A
C2345      C2350   1.413       .  A
C2346      C2347   1.410       .  A
C2346      C2351   1.451       .  S
C2347      C2348   1.411       .  A
C2347      C2354   1.448       .  S
C2348      C2349   1.414       .  A
C2349      C2350   1.411       .  A
C2349      C2352   1.451       .  S
C2350      C2353   1.452       .  S
C2351      N2358   1.157       .  T
C2352      N2357   1.157       .  T
C2353      N2355   1.157       .  T
C2354      N2356   1.157       .  T
C2359      C2360   1.412       .  A
C2359      C2364   1.412       .  A
C2360      C2361   1.412       .  A
C2360      C2365   1.452       .  S
C2361      C2362   1.414       .  A
C2361      C2368   1.449       .  S
C2362      C2363   1.417       .  A
C2363      C2364   1.409       .  A
C2363      C2366   1.452       .  S
C2364      C2367   1.453       .  S
C2365      N2372   1.157       .  T
C2366      N2371   1.157       .  T
C2367      N2369   1.157       .  T
C2368      N2370   1.157       .  T
C2373      C2374   1.416       .  A
C2373      C2378   1.416       .  A
C2374      C2375   1.409       .  A
C2374      C2379   1.452       .  S
C2375      C2376   1.411       .  A
C2375      C2382   1.449       .  S
C2376      C2377   1.416       .  A
C2377      C2378   1.412       .  A
C2377      C2380   1.452       .  S
C2378      C2381   1.452       .  S
C2379      N2386   1.157       .  T
C2380      N2385   1.157       .  T
C2381      N2383   1.158       .  T
C2382      N2384   1.157       .  T
C2387      C2388   1.410       .  A
C2387      C2392   1.412       .  A
C2388      C2389   1.411       .  A
C2388      C2393   1.451       .  S
C2389      C2390   1.413       .  A
C2389      C2396   1.448       .  S
C2390      C2391   1.415       .  A
C2391      C2392   1.411       .  A
C2391      C2394   1.451       .  S
C2392      C2395   1.452       .  S
C2393      N2400   1.157       .  T
C2394      N2399   1.157       .  T
C2395      N2397   1.157       .  T
C2396      N2398   1.157       .  T
C2401      C2402   1.411       .  A
C2401      C2406   1.410       .  A
C2402      C2403   1.412       .  A
C2402      C2407   1.453       .  S
C2403      C2404   1.414       .  A
C2403      C2410   1.448       .  S
C2404      C2405   1.416       .  A
C2405      C2406   1.410       .  A
C2405      C2408   1.451       .  S
C2406      C2409   1.452       .  S
C2407      N2414   1.158       .  T
C2408      N2413   1.157       .  T
C2409      N2411   1.157       .  T
C2410      N2412   1.157       .  T
C2415      C2416   1.414       .  A
C2415      C2420   1.413       .  A
C2416      C2417   1.414       .  A
C2416      C2421   1.451       .  S
C2417      C2418   1.416       .  A
C2417      C2424   1.451       .  S
C2418      C2419   1.414       .  A
C2419      C2420   1.414       .  A
C2419      C2422   1.448       .  S
C2420      C2423   1.452       .  S
C2421      N2428   1.157       .  T
C2422      N2427   1.157       .  T
C2423      N2425   1.157       .  T
C2424      N2426   1.157       .  T
C2429      C2430   1.413       .  A
C2429      C2434   1.416       .  A
C2430      C2431   1.409       .  A
C2430      C2435   1.452       .  S
C2431      C2432   1.414       .  A
C2431      C2438   1.452       .  S
C2432      C2433   1.414       .  A
C2433      C2434   1.414       .  A
C2433      C2436   1.450       .  S
C2434      C2437   1.451       .  S
C2435      N2442   1.157       .  T
C2436      N2441   1.157       .  T
C2437      N2439   1.158       .  T
C2438      N2440   1.157       .  T
C2443      C2444   1.414       .  A
C2443      C2448   1.410       .  A
C2444      C2445   1.413       .  A
C2444      C2449   1.452       .  S
C2445      C2446   1.416       .  A
C2445      C2452   1.451       .  S
C2446      C2447   1.418       .  A
C2447      C2448   1.411       .  A
C2447      C2450   1.453       .  S
C2448      C2451   1.449       .  S
C2449      N2456   1.157       .  T
C2450      N2455   1.158       .  T
C2451      N2453   1.157       .  T
C2452      N2454   1.157       .  T
C2457      C2458   1.419       .  A
C2457      C2462   1.417       .  A
C2458      C2459   1.409       .  A
C2458      C2463   1.453       .  S
C2459      C2460   1.410       .  A
C2459      C2466   1.449       .  S
C2460      C2461   1.415       .  A
C2461      C2462   1.409       .  A
C2461      C2464   1.453       .  S
C2462      C2465   1.453       .  S
C2463      N2470   1.158       .  T
C2464      N2469   1.157       .  T
C2465      N2467   1.158       .  T
C2466      N2468   1.157       .  T
C2471      C2472   1.413       .  A
C2471      C2476   1.413       .  A
C2472      C2473   1.412       .  A
C2472      C2477   1.452       .  S
C2473      C2474   1.414       .  A
C2473      C2480   1.449       .  S
C2474      C2475   1.417       .  A
C2475      C2476   1.410       .  A
C2475      C2478   1.452       .  S
C2476      C2479   1.453       .  S
C2477      N2484   1.157       .  T
C2478      N2483   1.157       .  T
C2479      N2481   1.157       .  T
C2480      N2482   1.157       .  T
C2485      C2486   1.416       .  A
C2485      C2490   1.413       .  A
C2486      C2487   1.411       .  A
C2486      C2491   1.451       .  S
C2487      C2488   1.412       .  A
C2487      C2494   1.449       .  S
C2488      C2489   1.419       .  A
C2489      C2490   1.413       .  A
C2489      C2492   1.452       .  S
C2490      C2493   1.452       .  S
C2491      N2498   1.157       .  T
C2492      N2497   1.157       .  T
C2493      N2495   1.157       .  T
C2494      N2496   1.157       .  T
C2499      C2500   1.413       .  A
C2499      C2504   1.410       .  A
C2500      C2501   1.411       .  A
C2500      C2505   1.453       .  S
C2501      C2502   1.412       .  A
C2501      C2508   1.448       .  S
C2502      C2503   1.416       .  A
C2503      C2504   1.412       .  A
C2503      C2506   1.451       .  S
C2504      C2507   1.449       .  S
C2505      N2512   1.157       .  T
C2506      N2511   1.157       .  T
C2507      N2509   1.157       .  T
C2508      N2510   1.157       .  T
C2513      C2514   1.423       .  A
C2513      C2518   1.422       .  A
C2514      C2515   1.415       .  A
C2514      C2519   1.450       .  S
C2515      C2516   1.411       .  A
C2515      C2522   1.452       .  S
C2516      C2517   1.409       .  A
C2517      C2518   1.413       .  A
C2517      C2520   1.449       .  S
C2518      C2521   1.452       .  S
C2519      N2526   1.157       .  T
C2520      N2525   1.157       .  T
C2521      N2523   1.158       .  T
C2522      N2524   1.157       .  T
C2527      C2528   1.415       .  A
C2527      C2532   1.418       .  A
C2528      C2529   1.413       .  A
C2528      C2533   1.448       .  S
C2529      C2530   1.408       .  A
C2529      C2536   1.450       .  S
C2530      C2531   1.410       .  A
C2531      C2532   1.411       .  A
C2531      C2534   1.452       .  S
C2532      C2535   1.451       .  S
C2533      N2540   1.157       .  T
C2534      N2539   1.157       .  T
C2535      N2537   1.157       .  T
C2536      N2538   1.157       .  T
C2541      C2542   1.424       .  A
C2541      C2546   1.423       .  A
C2542      C2543   1.413       .  A
C2542      C2547   1.451       .  S
C2543      C2544   1.407       .  A
C2543      C2550   1.450       .  S
C2544      C2545   1.411       .  A
C2545      C2546   1.415       .  A
C2545      C2548   1.452       .  S
C2546      C2549   1.451       .  S
C2547      N2554   1.157       .  T
C2548      N2553   1.157       .  T
C2549      N2551   1.158       .  T
C2550      N2552   1.157       .  T
C2555      C2556   1.413       .  A
C2555      C2560   1.414       .  A
C2556      C2557   1.411       .  A
C2556      C2561   1.452       .  S
C2557      C2558   1.417       .  A
C2557      C2564   1.452       .  S
C2558      C2559   1.412       .  A
C2559      C2560   1.410       .  A
C2559      C2562   1.449       .  S
C2560      C2563   1.450       .  S
C2561      N2568   1.157       .  T
C2562      N2567   1.157       .  T
C2563      N2565   1.157       .  T
C2564      N2566   1.157       .  T
C2569      C2570   1.423       .  A
C2569      C2574   1.421       .  A
C2570      C2571   1.414       .  A
C2570      C2575   1.452       .  S
C2571      C2572   1.411       .  A
C2571      C2578   1.452       .  S
C2572      C2573   1.408       .  A
C2573      C2574   1.411       .  A
C2573      C2576   1.449       .  S
C2574      C2577   1.452       .  S
C2575      N2582   1.158       .  T
C2576      N2581   1.157       .  T
C2577      N2579   1.158       .  T
C2578      N2580   1.157       .  T
C2583      C2584   1.419       .  A
C2583      C2588   1.421       .  A
C2584      C2585   1.413       .  A
C2584      C2589   1.452       .  S
C2585      C2586   1.412       .  A
C2585      C2592   1.449       .  S
C2586      C2587   1.412       .  A
C2587      C2588   1.412       .  A
C2587      C2590   1.452       .  S
C2588      C2591   1.453       .  S
C2589      N2596   1.158       .  T
C2590      N2595   1.157       .  T
C2591      N2593   1.158       .  T
C2592      N2594   1.157       .  T
C2597      C2598   1.416       .  A
C2597      C2602   1.410       .  A
C2598      C2599   1.411       .  A
C2598      C2603   1.452       .  S
C2599      C2600   1.414       .  A
C2599      C2606   1.452       .  S
C2600      C2601   1.416       .  A
C2601      C2602   1.408       .  A
C2601      C2604   1.453       .  S
C2602      C2605   1.449       .  S
C2603      N2610   1.157       .  T
C2604      N2609   1.158   1_565  T
C2605      N2607   1.157       .  T
C2606      N2608   1.157       .  T
C2611      C2612   1.412       .  A
C2611      C2616   1.413       .  A
C2612      C2613   1.410       .  A
C2612      C2617   1.452       .  S
C2613      C2614   1.416       .  A
C2613      C2620   1.452       .  S
C2614      C2615   1.413       .  A
C2615      C2616   1.412       .  A
C2615      C2618   1.449       .  S
C2616      C2619   1.452       .  S
C2617      N2624   1.157       .  T
C2618      N2623   1.157       .  T
C2619      N2621   1.157       .  T
C2620      N2622   1.157       .  T
C2625      C2626   1.413       .  A
C2625      C2630   1.417       .  A
C2626      C2627   1.412       .  A
C2626      C2631   1.448       .  S
C2627      C2628   1.414       .  A
C2627      C2634   1.453       .  S
C2628      C2629   1.414       .  A
C2629      C2630   1.411       .  A
C2629      C2632   1.452       .  S
C2630      C2633   1.452       .  S
C2631      N2638   1.157       .  T
C2632      N2637   1.157       .  T
C2633      N2635   1.157       .  T
C2634      N2636   1.158   1_545  T
C2639      C2640   1.416       .  A
C2639      C2644   1.413       .  A
C2640      C2641   1.408       .  A
C2640      C2645   1.452       .  S
C2641      C2642   1.411       .  A
C2641      C2648   1.452       .  S
C2642      C2643   1.412       .  A
C2643      C2644   1.411       .  A
C2643      C2646   1.452       .  S
C2644      C2647   1.449       .  S
C2645      N2652   1.157       .  T
C2646      N2651   1.157   1_455  T
C2647      N2649   1.157       .  T
C2648      N2650   1.157       .  T
C2653      C2654   1.417       .  A
C2653      C2658   1.414       .  A
C2654      C2655   1.412       .  A
C2654      C2659   1.451       .  S
C2655      C2656   1.412       .  A
C2655      C2662   1.452       .  S
C2656      C2657   1.411       .  A
C2657      C2658   1.412       .  A
C2657      C2660   1.452       .  S
C2658      C2661   1.447       .  S
C2659      N2666   1.157       .  T
C2660      N2665   1.157   1_655  T
C2661      N2663   1.157       .  T
C2662      N2664   1.157       .  T
C2667      C2668   1.411       .  A
C2667      C2672   1.412       .  A
C2668      C2669   1.411       .  A
C2668      C2673   1.450       .  S
C2669      C2670   1.417       .  A
C2669      C2676   1.452       .  S
C2670      C2671   1.413       .  A
C2671      C2672   1.412       .  A
C2671      C2674   1.448       .  S
C2672      C2675   1.452       .  S
C2673      N2680   1.157       .  T
C2674      N2679   1.157       .  T
C2675      N2677   1.157       .  T
C2676      N2678   1.157       .  T
C2681      C2682   1.419       .  A
C2681      C2686   1.422       .  A
C2682      C2683   1.409       .  A
C2682      C2687   1.447       .  S
C2683      C2684   1.406       .  A
C2683      C2690   1.449       .  S
C2684      C2685   1.413       .  A
C2685      C2686   1.418       .  A
C2685      C2688   1.451       .  S
C2686      C2689   1.451       .  S
C2687      N2694   1.156       .  T
C2688      N2693   1.157       .  T
C2689      N2691   1.158       .  T
C2690      N2692   1.157       .  T
C2695      C2696   1.413       .  A
C2695      C2700   1.412       .  A
C2696      C2697   1.415       .  A
C2696      C2701   1.451       .  S
C2697      C2698   1.416       .  A
C2697      C2704   1.450       .  S
C2698      C2699   1.417       .  A
C2699      C2700   1.411       .  A
C2699      C2702   1.452       .  S
C2700      C2703   1.450       .  S
C2701      N2708   1.157       .  T
C2702      N2707   1.158       .  T
C2703      N2705   1.157       .  T
C2704      N2706   1.157       .  T
C2709      C2710   1.427       .  A
C2709      C2714   1.424       .  A
C2710      C2711   1.411       .  A
C2710      C2715   1.453       .  S
C2711      C2712   1.409       .  A
C2711      C2718   1.453       .  S
C2712      C2713   1.406       .  A
C2713      C2714   1.411       .  A
C2713      C2716   1.451       .  S
C2714      C2717   1.449       .  S
C2715      N2722   1.158       .  T
C2716      N2721   1.157       .  T
C2717      N2719   1.157       .  T
C2718      N2720   1.157       .  T
C2723      C2724   1.419       .  A
C2723      C2728   1.418       .  A
C2724      C2725   1.414       .  A
C2724      C2729   1.453       .  S
C2725      C2726   1.412       .  A
C2725      C2732   1.448       .  S
C2726      C2727   1.415       .  A
C2727      C2728   1.416       .  A
C2727      C2730   1.452       .  S
C2728      C2731   1.450       .  S
C2729      N2736   1.158       .  T
C2730      N2735   1.157       .  T
C2731      N2733   1.157       .  T
C2732      N2734   1.157       .  T
C2737      C2738   1.411       .  A
C2737      C2742   1.417       .  A
C2738      C2739   1.414       .  A
C2738      C2743   1.449       .  S
C2739      C2740   1.414       .  A
C2739      C2746   1.448       .  S
C2740      C2741   1.413       .  A
C2741      C2742   1.415       .  A
C2741      C2744   1.451       .  S
C2742      C2745   1.451       .  S
C2743      N2750   1.157       .  T
C2744      N2749   1.157       .  T
C2745      N2747   1.157       .  T
C2746      N2748   1.156   1_565  T
C2751      C2752   1.411       .  A
C2751      C2756   1.413       .  A
C2752      C2753   1.411       .  A
C2752      C2757   1.451       .  S
C2753      C2754   1.411       .  A
C2753      C2760   1.449       .  S
C2754      C2755   1.415       .  A
C2755      C2756   1.413       .  A
C2755      C2758   1.451       .  S
C2756      C2759   1.451       .  S
C2757      N2764   1.157       .  T
C2758      N2763   1.157       .  T
C2759      N2761   1.157       .  T
C2760      N2762   1.157       .  T
C2765      C2766   1.412       .  A
C2765      C2770   1.414       .  A
C2766      C2767   1.410       .  A
C2766      C2771   1.449       .  S
C2767      C2768   1.410       .  A
C2767      C2774   1.450       .  S
C2768      C2769   1.411       .  A
C2769      C2770   1.412       .  A
C2769      C2772   1.451       .  S
C2770      C2773   1.450       .  S
C2771      N2778   1.157       .  T
C2772      N2777   1.157       .  T
C2773      N2775   1.157       .  T
C2774      N2776   1.157       .  T
C2779      C2780   1.410       .  A
C2779      C2784   1.414       .  A
C2780      C2781   1.407       .  A
C2780      C2785   1.449       .  S
C2781      C2782   1.412       .  A
C2781      C2788   1.447       .  S
C2782      C2783   1.420       .  A
C2783      C2784   1.415       .  A
C2783      C2786   1.450       .  S
C2784      C2787   1.452       .  S
C2785      N2792   1.157   1_545  T
C2786      N2791   1.157       .  T
C2787      N2789   1.158       .  T
C2788      N2790   1.157       .  T
C2793      C2794   1.413       .  A
C2793      C2798   1.406       .  A
C2794      C2795   1.413       .  A
C2794      C2799   1.452       .  S
C2795      C2796   1.421       .  A
C2795      C2802   1.452       .  S
C2796      C2797   1.423       .  A
C2797      C2798   1.410       .  A
C2797      C2800   1.450       .  S
C2798      C2801   1.450       .  S
C2799      N2806   1.157       .  T
C2800      N2805   1.157       .  T
C2801      N2803   1.157       .  T
C2802      N2804   1.158       .  T
C2807      C2808   1.410       .  A
C2807      C2812   1.408       .  A
C2808      C2809   1.415       .  A
C2808      C2813   1.452       .  S
C2809      C2810   1.425       .  A
C2809      C2816   1.452       .  S
C2810      C2811   1.423       .  A
C2811      C2812   1.411       .  A
C2811      C2814   1.452       .  S
C2812      C2815   1.450       .  S
C2813      N2820   1.157       .  T
C2814      N2819   1.158       .  T
C2815      N2817   1.157       .  T
C2816      N2818   1.158       .  T
C2821      C2822   1.422       .  A
C2821      C2826   1.419       .  A
C2822      C2823   1.412       .  A
C2822      C2827   1.450       .  S
C2823      C2824   1.408       .  A
C2823      C2830   1.451       .  S
C2824      C2825   1.413       .  A
C2825      C2826   1.411       .  A
C2825      C2828   1.452       .  S
C2826      C2829   1.452       .  S
C2827      N2834   1.157       .  T
C2828      N2833   1.157       .  T
C2829      N2831   1.158       .  T
C2830      N2832   1.157       .  T
C2835      C2836   1.420       .  A
C2835      C2840   1.417       .  A
C2836      C2837   1.415       .  A
C2836      C2841   1.450       .  S
C2837      C2838   1.415       .  A
C2837      C2844   1.452       .  S
C2838      C2839   1.410       .  A
C2839      C2840   1.411       .  A
C2839      C2842   1.449       .  S
C2840      C2843   1.448       .  S
C2841      N2848   1.157       .  T
C2842      N2847   1.157       .  T
C2843      N2845   1.156       .  T
C2844      N2846   1.157       .  T
C2849      C2850   1.415       .  A
C2849      C2854   1.414       .  A
C2850      C2851   1.411       .  A
C2850      C2855   1.452       .  S
C2851      C2852   1.414       .  A
C2851      C2858   1.452       .  S
C2852      C2853   1.412       .  A
C2853      C2854   1.409       .  A
C2853      C2856   1.447       .  S
C2854      C2857   1.453       .  S
C2855      N2862   1.158       .  T
C2856      N2861   1.156       .  T
C2857      N2859   1.157       .  T
C2858      N2860   1.157       .  T
C2863      C2864   1.411       .  A
C2863      C2868   1.411       .  A
C2864      C2865   1.410       .  A
C2864      C2869   1.452       .  S
C2865      C2866   1.412       .  A
C2865      C2872   1.448       .  S
C2866      C2867   1.414       .  A
C2867      C2868   1.410       .  A
C2867      C2870   1.451       .  S
C2868      C2871   1.451       .  S
C2869      N2876   1.157       .  T
C2870      N2875   1.157       .  T
C2871      N2873   1.157       .  T
C2872      N2874   1.157       .  T
C2877      C2878   1.415       .  A
C2877      C2882   1.413       .  A
C2878      C2879   1.407       .  A
C2878      C2883   1.452       .  S
C2879      C2880   1.411       .  A
C2879      C2886   1.453       .  S
C2880      C2881   1.410       .  A
C2881      C2882   1.409       .  A
C2881      C2884   1.452       .  S
C2882      C2885   1.449       .  S
C2883      N2890   1.157       .  T
C2884      N2889   1.158       .  T
C2885      N2887   1.157       .  T
C2886      N2888   1.157       .  T
C2891      C2892   1.412       .  A
C2891      C2896   1.413       .  A
C2892      C2893   1.415       .  A
C2892      C2897   1.451       .  S
C2893      C2894   1.414       .  A
C2893      C2900   1.448       .  S
C2894      C2895   1.418       .  A
C2895      C2896   1.416       .  A
C2895      C2898   1.451       .  S
C2896      C2899   1.451       .  S
C2897      N2904   1.157       .  T
C2898      N2903   1.157       .  T
C2899      N2901   1.157       .  T
C2900      N2902   1.157       .  T
