geometry optimzed in LAMMPS
_audit_creation_date              2020-11-30 
_audit_creation_method            'lammps2cif' 
_symmetry_space_group_name_H-M    'P1' 
_symmetry_Int_Tables_number       1 
_symmetry_cell_setting            triclinic 
loop_ 
_symmetry_equiv_pos_as_xyz 
  x,y,z 
_cell_length_a                    32.009802189691506 
_cell_length_b                    31.916776897890728 
_cell_length_c                    32.08002806088003 
_cell_angle_alpha                 90.41277528061893 
_cell_angle_beta                  90.23816438996687 
_cell_angle_gamma                 89.6926797668083 
loop_ 
_atom_site_label 
_atom_site_type_symbol 
_atom_site_fract_x 
_atom_site_fract_y 
_atom_site_fract_z 
_atom_site_charge 
C1          C  0.63886567  0.14492523  0.80403240     0.03030
C2          C  0.64408730  0.18734373  0.81424897    -0.13120
C3          C  0.65130745  0.20106577  0.85554450     0.00530
C4          C  0.65540417  0.17008359  0.88654310    -0.11640
C5          C  0.64662854  0.12793405  0.87727534     0.03030
C6          C  0.63855247  0.11549309  0.83611992    -0.11060
H7          H  0.64306830  0.20957321  0.78920212     0.08620
H8          H  0.66475199  0.17826058  0.91793723     0.06150
H9          H  0.63319543  0.08270350  0.82894132     0.06000
C10         C  0.90013313  0.15286406  0.55340694     0.03030
C11         C  0.91416646  0.19381391  0.54677272    -0.13120
C12         C  0.95689044  0.20291123  0.54412800     0.00530
C13         C  0.98585658  0.16972795  0.54284561    -0.11640
C14         C  0.97247910  0.12824188  0.54784045     0.03030
C15         C  0.92972160  0.11994009  0.55377968    -0.11060
H16         H  0.89166179  0.21925155  0.54584733     0.08620
H17         H  0.01886529  0.17627507  0.53957176     0.06150
H18         H  0.91967698  0.08807161  0.55915329     0.06000
C19         C  0.95278266  0.46241223  0.80280740     0.03030
C20         C  0.98500839  0.45858785  0.83236914    -0.13120
C21         C  0.97517618  0.45602390  0.87503441     0.00530
C22         C  0.93315552  0.45519676  0.88768356    -0.11640
C23         C  0.90087877  0.46134812  0.85846785     0.03030
C24         C  0.91171918  0.46743528  0.81653210    -0.11060
H25         H  0.01718366  0.45597094  0.82224650     0.08620
H26         H  0.92591869  0.44921804  0.92002086     0.06150
H27         H  0.88745448  0.47225385  0.79334986     0.06000
C28         C  0.66953392  0.38047019  0.88271456     0.03030
C29         C  0.71173749  0.39151155  0.88402054    -0.13120
C30         C  0.72391868  0.43362442  0.88469062     0.00530
C31         C  0.69320881  0.46513019  0.88645364    -0.11640
C32         C  0.65064515  0.45441525  0.88593272     0.03030
C33         C  0.63883301  0.41200919  0.88417698    -0.11060
H34         H  0.73538629  0.36711235  0.88201682     0.08620
H35         H  0.70231579  0.49779187  0.88614072     0.06150
H36         H  0.60608605  0.40370922  0.88221939     0.06000
C37         C  0.98069224  0.38037531  0.57049877     0.03030
C38         C  0.97557656  0.39236795  0.61239202    -0.13120
C39         C  0.96967348  0.43471216  0.62413988     0.00530
C40         C  0.96839632  0.46496988  0.59245273    -0.11640
C41         C  0.97777587  0.45371243  0.55110406     0.03030
C42         C  0.98477940  0.41167709  0.54042901    -0.11060
H43         H  0.97529645  0.36823412  0.63590242     0.08620
H44         H  0.96096862  0.49730647  0.59980733     0.06150
H45         H  0.99136162  0.40322354  0.50832594     0.06000
C46         C  0.72200257  0.12539121  0.57790999     0.03030
C47         C  0.70897865  0.12292079  0.61949791    -0.13120
C48         C  0.66705704  0.11598093  0.62959307     0.00530
C49         C  0.63740403  0.11249072  0.59743830    -0.11640
C50         C  0.64950166  0.11551075  0.55563154     0.03030
C51         C  0.69187078  0.12202447  0.54580745    -0.11060
H52         H  0.73171745  0.12671541  0.64434715     0.08620
H53         H  0.60472678  0.10815183  0.60497784     0.06150
H54         H  0.70120520  0.12499675  0.51353613     0.06000
C55         C  0.22466004  0.46945363  0.85688955     0.03030
C56         C  0.21162079  0.47437260  0.81578193    -0.13120
C57         C  0.17174342  0.46207767  0.80250988     0.00530
C58         C  0.14209938  0.45391706  0.83422701    -0.11640
C59         C  0.15322515  0.45665673  0.87662607     0.03030
C60         C  0.19508410  0.46268613  0.88797394    -0.11060
H61         H  0.23471060  0.48443443  0.79419517     0.08620
H62         H  0.11024515  0.44559776  0.82721221     0.06150
H63         H  0.20473857  0.46034648  0.92030668     0.06000
C64         C  0.22027671  0.14674031  0.55312761     0.03030
C65         C  0.20707306  0.18762629  0.56210269    -0.13120
C66         C  0.16468471  0.19786152  0.56585433     0.00530
C67         C  0.13472643  0.16616373  0.56221223    -0.11640
C68         C  0.14723916  0.12466005  0.55429390     0.03030
C69         C  0.18981016  0.11517965  0.54875870    -0.11060
H70         H  0.23003999  0.21188224  0.56697020     0.08620
H71         H  0.10188527  0.17363930  0.56609304     0.06150
H72         H  0.19916488  0.08309949  0.54234855     0.06000
C73         C  0.46198396  0.15055706  0.80835308     0.03030
C74         C  0.46934900  0.11953042  0.83857520    -0.13120
C75         C  0.47348393  0.13044364  0.88088080     0.00530
C76         C  0.47396965  0.17254927  0.89304779    -0.11640
C77         C  0.46739006  0.20401387  0.86355459     0.03030
C78         C  0.46021539  0.19269450  0.82170147    -0.11060
H79         H  0.47196662  0.08690030  0.82952067     0.08620
H80         H  0.47910140  0.18064025  0.92548209     0.06150
H81         H  0.45346743  0.21719577  0.79944303     0.06000
C82         C  0.45470310  0.38254796  0.88403490     0.03030
C83         C  0.41290885  0.39488484  0.87879469    -0.13120
C84         C  0.40198565  0.43681513  0.87015677     0.00530
C85         C  0.43412854  0.46617210  0.86632290    -0.11640
C86         C  0.47534257  0.45501493  0.87606355     0.03030
C87         C  0.48565785  0.41338382  0.88529714    -0.11060
H88         H  0.38887861  0.37127184  0.88079334     0.08620
H89         H  0.42714976  0.49806546  0.85726292     0.06150
H90         H  0.51784627  0.40480018  0.89171948     0.06000
C91         C  0.39666069  0.11543109  0.57499009     0.03030
C92         C  0.40715678  0.11756963  0.61722389    -0.13120
C93         C  0.44879084  0.11699134  0.63038323     0.00530
C94         C  0.48080266  0.11431122  0.60041151    -0.11640
C95         C  0.47069467  0.11309560  0.55760640     0.03030
C96         C  0.42854175  0.11372124  0.54506862    -0.11060
H97         H  0.38254260  0.12122384  0.64012831     0.08620
H98         H  0.51323132  0.11439079  0.61025957     0.06150
H99         H  0.42058159  0.11321278  0.51218347     0.06000
C100        C  0.13697322  0.37603065  0.57948997     0.03030
C101        C  0.13278301  0.39241357  0.61974668    -0.13120
C102        C  0.13420945  0.43532315  0.62720331     0.00530
C103        C  0.13730908  0.46293209  0.59365458    -0.11640
C104        C  0.13984210  0.44732385  0.55266938     0.03030
C105        C  0.14053300  0.40370920  0.54561390    -0.11060
H106        H  0.13081327  0.37141638  0.64610265     0.08620
H107        H  0.13863369  0.49630850  0.59954769     0.06150
H108        H  0.14427687  0.39152491  0.51423444     0.06000
C109        C  0.48583363  0.93727999  0.79927891     0.03030
C110        C  0.49360522  0.89593647  0.81255621    -0.13120
C111        C  0.48323837  0.88330324  0.85275139     0.00530
C112        C  0.47667553  0.91354540  0.88357555    -0.11640
C113        C  0.47585241  0.95586442  0.87278905     0.03030
C114        C  0.47688142  0.96756017  0.83047369    -0.11060
H115        H  0.50334128  0.87193042  0.79059426     0.08620
H116        H  0.47152241  0.90427976  0.91559119     0.06150
H117        H  0.47007196  0.99971298  0.82255712     0.06000
C118        C  0.21737301  0.92155988  0.55219880     0.03030
C119        C  0.20402979  0.87958748  0.55127922    -0.13120
C120        C  0.16248501  0.86883269  0.55896624     0.00530
C121        C  0.13201097  0.90079126  0.56008762    -0.11640
C122        C  0.14416139  0.94314524  0.55736112     0.03030
C123        C  0.18682880  0.95327100  0.55592016    -0.11060
H124        H  0.22665257  0.85447011  0.54753416     0.08620
H125        H  0.09939122  0.89291322  0.56406247     0.06150
H126        H  0.19583576  0.98580832  0.55832794     0.06000
C127        C  0.22342777  0.62921182  0.85197897     0.03030
C128        C  0.21458254  0.61684325  0.81109990    -0.13120
C129        C  0.17705428  0.59747897  0.79981084     0.00530
C130        C  0.14654322  0.59199933  0.83107980    -0.11640
C131        C  0.15351726  0.60725072  0.87188090     0.03030
C132        C  0.19223965  0.62518320  0.88227597    -0.11060
H133        H  0.23767642  0.62244287  0.78757676     0.08620
H134        H  0.11679881  0.57777694  0.82358539     0.06150
H135        H  0.19794718  0.63602846  0.91387309     0.06000
C136        C  0.39963628  0.65607170  0.87725550     0.03030
C137        C  0.42956774  0.62345386  0.87844011    -0.13120
C138        C  0.47264210  0.63307642  0.87815257     0.00530
C139        C  0.48518966  0.67511856  0.87563132    -0.11640
C140        C  0.45511021  0.70725035  0.87531601     0.03030
C141        C  0.41292218  0.69738264  0.87771564    -0.11060
H142        H  0.41959320  0.59112592  0.87832328     0.08620
H143        H  0.51807157  0.68275832  0.87365765     0.06150
H144        H  0.38979714  0.72239852  0.87793693     0.06000
C145        C  0.15237159  0.62688510  0.62748092     0.03030
C146        C  0.14833496  0.67048550  0.62251295    -0.13120
C147        C  0.14779305  0.68857648  0.58237733     0.00530
C148        C  0.15008808  0.66140246  0.54744903    -0.11640
C149        C  0.15068315  0.61778794  0.55272895     0.03030
C150        C  0.15328974  0.60086410  0.59255104    -0.11060
H151        H  0.14641201  0.69020684  0.65006875     0.08620
H152        H  0.15179497  0.67375183  0.51620634     0.06150
H153        H  0.15537982  0.56725938  0.59646269     0.06000
C154        C  0.39622854  0.94756610  0.57069450     0.03030
C155        C  0.40975612  0.95317808  0.61207063    -0.13120
C156        C  0.45242524  0.95602017  0.62181124     0.00530
C157        C  0.48181300  0.95431818  0.58959281    -0.11640
C158        C  0.46870394  0.94842654  0.54810924     0.03030
C159        C  0.42589849  0.94571349  0.53861403    -0.11060
H160        H  0.38706645  0.95310530  0.63707607     0.08620
H161        H  0.51486419  0.95576170  0.59695584     0.06150
H162        H  0.41580818  0.94131787  0.50658802     0.06000
C163        C  0.89377638  0.93506284  0.54521540     0.03030
C164        C  0.90353031  0.89281090  0.54174328    -0.13120
C165        C  0.94435931  0.87858250  0.54793117     0.00530
C166        C  0.97653214  0.90811027  0.55283687    -0.11640
C167        C  0.96733230  0.95113994  0.55054399     0.03030
C168        C  0.92565258  0.96473800  0.54792763    -0.11060
H169        H  0.87825530  0.87057259  0.53789720     0.08620
H170        H  0.00836438  0.89796001  0.55854709     0.06150
H171        H  0.91805467  0.99784895  0.54954186     0.06000
C172        C  0.63803791  0.93667425  0.79798351     0.03030
C173        C  0.63355764  0.89446178  0.80882152    -0.13120
C174        C  0.63936452  0.88137584  0.85020062     0.00530
C175        C  0.64651740  0.91187618  0.88105254    -0.11640
C176        C  0.64513824  0.95439716  0.87110560     0.03030
C177        C  0.64161797  0.96699099  0.82949980    -0.11060
H178        H  0.62882706  0.87146792  0.78425135     0.08620
H179        H  0.65294514  0.90289694  0.91291640     0.06150
H180        H  0.64328983  0.99991644  0.82165988     0.06000
C181        C  0.94945881  0.61564797  0.80077683     0.03030
C182        C  0.90821644  0.62067268  0.81422446    -0.13120
C183        C  0.89868403  0.62466949  0.85668883     0.00530
C184        C  0.93095655  0.62125374  0.88633845    -0.11640
C185        C  0.97250973  0.61540085  0.87334458     0.03030
C186        C  0.98165927  0.61284556  0.83060321    -0.11060
H187        H  0.88345130  0.62367539  0.79128838     0.08620
H188        H  0.92396553  0.62426754  0.91925543     0.06150
H189        H  0.01380845  0.60951033  0.82054958     0.06000
C190        C  0.97162342  0.64798335  0.62495353     0.03030
C191        C  0.96298366  0.68916056  0.61327072    -0.13120
C192        C  0.96144231  0.70076986  0.57140246     0.00530
C193        C  0.96790979  0.67053485  0.54024259    -0.11640
C194        C  0.97563231  0.62877020  0.55106358     0.03030
C195        C  0.97781195  0.61748189  0.59344622    -0.11060
H196        H  0.95696676  0.71259414  0.63709139     0.08620
H197        H  0.96608756  0.67931254  0.50769025     0.06150
H198        H  0.98332647  0.58508145  0.60174325     0.06000
C199        C  0.72295065  0.65435139  0.89005518     0.03030
C200        C  0.70941157  0.69623874  0.89165375    -0.13120
C201        C  0.66728015  0.70660581  0.88664668     0.00530
C202        C  0.63725428  0.67499142  0.88643383    -0.11640
C203        C  0.64982123  0.63290877  0.88767546     0.03030
C204        C  0.69263602  0.62251915  0.88779321    -0.11060
H205        H  0.73208599  0.72133218  0.89299579     0.08620
H206        H  0.60445073  0.68298997  0.88305840     0.06150
H207        H  0.70207515  0.58999247  0.88496249     0.06000
C208        C  0.71594325  0.95279050  0.56961231     0.03030
C209        C  0.70409074  0.96825843  0.60895575    -0.13120
C210        C  0.66251681  0.96680391  0.62229906     0.00530
C211        C  0.63098315  0.96137026  0.59230860    -0.11640
C212        C  0.64202801  0.95185985  0.55106024     0.03030
C213        C  0.68366052  0.94233746  0.54149346    -0.11060
H214        H  0.72760076  0.97767329  0.63140487     0.08620
H215        H  0.59836377  0.96230691  0.60105116     0.06150
H216        H  0.68971251  0.92701869  0.51217031     0.06000
C217        C  0.22167775  0.60870715  0.07636325     0.03030
C218        C  0.20678944  0.60532174  0.11702449    -0.13120
C219        C  0.16416822  0.60054015  0.12467940     0.00530
C220        C  0.13629624  0.59654063  0.09101076    -0.11640
C221        C  0.15069464  0.60056215  0.04993661     0.03030
C222        C  0.19356294  0.60642708  0.04261163    -0.11060
H223        H  0.22836561  0.60858127  0.14300239     0.08620
H224        H  0.10323238  0.59252062  0.09680349     0.06150
H225        H  0.20477714  0.61044251  0.01106587     0.06000
C226        C  0.22101141  0.93195499  0.37225238     0.03030
C227        C  0.21246717  0.88907688  0.37407799    -0.13120
C228        C  0.17145410  0.87412961  0.37163720     0.00530
C229        C  0.13824940  0.90352509  0.37082134    -0.11640
C230        C  0.14663699  0.94689602  0.37264883     0.03030
C231        C  0.18809190  0.96087468  0.37296007    -0.11060
H232        H  0.23837205  0.86703697  0.37460600     0.08620
H233        H  0.10625531  0.89296224  0.36816578     0.06150
H234        H  0.19468522  0.99411305  0.37210319     0.06000
C235        C  0.47339219  0.92034362  0.11908015     0.03030
C236        C  0.47415947  0.87914460  0.10419765    -0.13120
C237        C  0.47746276  0.87045810  0.06141958     0.00530
C238        C  0.48089396  0.90380125  0.03332914    -0.11640
C239        C  0.47946031  0.94537054  0.04800444     0.03030
C240        C  0.47612188  0.95359263  0.09091707    -0.11060
H241        H  0.47094594  0.85365744  0.12611421     0.08620
H242        H  0.48342126  0.89749353  0.00019049     0.06150
H243        H  0.47450739  0.98565266  0.10222845     0.06000
C244        C  0.39921418  0.63997203  0.05579159     0.03030
C245        C  0.40940580  0.68180268  0.04586380    -0.13120
C246        C  0.45086197  0.69379008  0.03847165     0.00530
C247        C  0.48152045  0.66267940  0.03463712    -0.11640
C248        C  0.47264968  0.62149945  0.04584917     0.03030
C249        C  0.43229233  0.61083587  0.05906732    -0.11060
H250        H  0.38530876  0.70567549  0.04506199     0.08620
H251        H  0.51308032  0.67105508  0.02598977     0.06150
H252        H  0.42671099  0.57953628  0.07038246     0.06000
C253        C  0.45064523  0.94886453  0.29631890     0.03030
C254        C  0.41091308  0.96366989  0.30711743    -0.13120
C255        C  0.39691768  0.96302996  0.34847770     0.00530
C256        C  0.42673142  0.95773831  0.38035381    -0.11640
C257        C  0.46869376  0.95005021  0.37015173     0.03030
C258        C  0.47952710  0.94117041  0.32865001    -0.11060
H259        H  0.38894059  0.97142672  0.28254681     0.08620
H260        H  0.41759300  0.95770932  0.41276729     0.06150
H261        H  0.51046038  0.92919622  0.32194764     0.06000
C262        C  0.14113318  0.63688424  0.29885795     0.03030
C263        C  0.14789800  0.67943508  0.30833635    -0.13120
C264        C  0.15362388  0.69349377  0.34956362     0.00530
C265        C  0.15217497  0.66397353  0.38203833    -0.11640
C266        C  0.14415722  0.62146288  0.37302908     0.03030
C267        C  0.13677697  0.60866730  0.33183312    -0.11060
H268        H  0.14987487  0.70191240  0.28335578     0.08620
H269        H  0.15743219  0.67390835  0.41399559     0.06150
H270        H  0.12922309  0.57620702  0.32544143     0.06000
C271        C  0.63141154  0.93189488  0.12353119     0.03030
C272        C  0.62692481  0.88929389  0.11301642    -0.13120
C273        C  0.63273712  0.87518604  0.07205224     0.00530
C274        C  0.63514453  0.90454207  0.03973035    -0.11640
C275        C  0.63575736  0.94757131  0.04936332     0.03030
C276        C  0.63653762  0.96077427  0.09111063    -0.11060
H277        H  0.62302774  0.86618728  0.13725274     0.08620
H278        H  0.63866790  0.89405700  0.00773849     0.06150
H279        H  0.64259636  0.99342517  0.09791482     0.06000
C280        C  0.89111169  0.93836729  0.37088644     0.03030
C281        C  0.89911395  0.89493933  0.37044013    -0.13120
C282        C  0.94022814  0.87908064  0.37213248     0.00530
C283        C  0.97340426  0.90756877  0.37708255    -0.11640
C284        C  0.96554673  0.95092001  0.37917818     0.03030
C285        C  0.92448268  0.96613235  0.37595892    -0.11060
H286        H  0.87315598  0.87347292  0.36745414     0.08620
H287        H  0.00538799  0.89624312  0.37763681     0.06150
H288        H  0.91872373  0.99962583  0.37543387     0.06000
C289        C  0.95576322  0.62026138  0.12104802     0.03030
C290        C  0.91387133  0.62322688  0.10858622    -0.13120
C291        C  0.90210007  0.61920916  0.06646229     0.00530
C292        C  0.93327748  0.61193691  0.03648097    -0.11640
C293        C  0.97558518  0.61080943  0.04826888     0.03030
C294        C  0.98672907  0.61451364  0.09055623    -0.11060
H295        H  0.89028240  0.62958153  0.13197514     0.08620
H296        H  0.92484215  0.60812442  0.00393995     0.06150
H297        H  0.01937211  0.61342395  0.09963481     0.06000
C298        C  0.72452613  0.64414120  0.04308251     0.03030
C299        C  0.71282088  0.68631488  0.04733722    -0.13120
C300        C  0.67095672  0.69784545  0.05424113     0.00530
C301        C  0.64085898  0.66597371  0.05745849    -0.11640
C302        C  0.65160047  0.62415560  0.04889672     0.03030
C303        C  0.69339288  0.61335722  0.04132843    -0.11060
H304        H  0.73675785  0.71014911  0.04646582     0.08620
H305        H  0.60882267  0.67365537  0.06519549     0.06150
H306        H  0.70191869  0.58084506  0.03597072     0.06000
C307        C  0.98402632  0.64632808  0.29811865     0.03030
C308        C  0.97969110  0.68848368  0.30964922    -0.13120
C309        C  0.97442634  0.70068656  0.35140932     0.00530
C310        C  0.97530714  0.66983886  0.38246853    -0.11640
C311        C  0.98255097  0.62763205  0.37184554     0.03030
C312        C  0.98697580  0.61593817  0.32966927    -0.11060
H313        H  0.97792980  0.71202412  0.28552667     0.08620
H314        H  0.96957575  0.67841045  0.41469048     0.06150
H315        H  0.99087052  0.58317545  0.32137584     0.06000
C316        C  0.65964195  0.97301154  0.29737894     0.03030
C317        C  0.63123761  0.96394784  0.32924910    -0.13120
C318        C  0.64465539  0.96303786  0.37091881     0.00530
C319        C  0.68723850  0.96938543  0.38012052    -0.11640
C320        C  0.71596243  0.97805025  0.34802619     0.03030
C321        C  0.70079684  0.98293933  0.30734507    -0.11060
H322        H  0.59926828  0.95606587  0.32167150     0.08620
H323        H  0.69777922  0.96628241  0.41178516     0.06150
H324        H  0.72237556  0.98932343  0.28221329     0.06000
C325        C  0.90294484  0.44412448  0.07302725     0.03030
C326        C  0.91655238  0.43812675  0.11426633    -0.13120
C327        C  0.95891056  0.44224887  0.12547878     0.00530
C328        C  0.98835211  0.44858757  0.09381338    -0.11640
C329        C  0.97573064  0.44956598  0.05191534     0.03030
C330        C  0.93310994  0.44881694  0.04167634    -0.11060
H331        H  0.89383122  0.43087865  0.13802481     0.08620
H332        H  0.02108866  0.45238707  0.10149167     0.06150
H333        H  0.92358761  0.45172301  0.00936106     0.06000
C334        C  0.89470839  0.14261128  0.38564456     0.03030
C335        C  0.90513947  0.18514163  0.38562513    -0.13120
C336        C  0.94673592  0.19823743  0.38296586     0.00530
C337        C  0.97866063  0.16784535  0.38099716    -0.11640
C338        C  0.96876024  0.12503280  0.38289004     0.03030
C339        C  0.92686533  0.11253431  0.38575539    -0.11060
H340        H  0.88038701  0.20847111  0.38581728     0.08620
H341        H  0.01088822  0.17734359  0.37742078     0.06150
H342        H  0.91929797  0.07951243  0.38671142     0.06000
C343        C  0.63845714  0.14435997  0.12756035     0.03030
C344        C  0.64066174  0.18655453  0.11552657    -0.13120
C345        C  0.64001558  0.19771114  0.07325326     0.00530
C346        C  0.63636843  0.16623973  0.04285513    -0.11640
C347        C  0.63531883  0.12414161  0.05442966     0.03030
C348        C  0.63529477  0.11318734  0.09660143    -0.11060
H349        H  0.64445150  0.21073156  0.13912711     0.08620
H350        H  0.63583600  0.17433258  0.01011626     0.06150
H351        H  0.63390056  0.08047857  0.10513165     0.06000
C352        C  0.67004641  0.37309799  0.04228012     0.03030
C353        C  0.71250530  0.38367076  0.04520330    -0.13120
C354        C  0.72564206  0.42534870  0.04218267     0.00530
C355        C  0.69544935  0.45730310  0.03900738    -0.11640
C356        C  0.65287864  0.44711859  0.03644955     0.03030
C357        C  0.64046333  0.40509580  0.03633336    -0.11060
H358        H  0.73562166  0.35935378  0.05065259     0.08620
H359        H  0.70496225  0.48984887  0.03886440     0.06150
H360        H  0.60762295  0.39754160  0.03333660     0.06000
C361        C  0.66229501  0.12043464  0.30449595     0.03030
C362        C  0.70438214  0.12521719  0.31591236    -0.13120
C363        C  0.71725422  0.12285720  0.35768599     0.00530
C364        C  0.68699046  0.11641302  0.38854885    -0.11640
C365        C  0.64467462  0.11323225  0.37782795     0.03030
C366        C  0.63242904  0.11414103  0.33579218    -0.11060
H367        H  0.72732816  0.13126951  0.29197175     0.08620
H368        H  0.69617351  0.11390939  0.42097456     0.06150
H369        H  0.59975036  0.11093781  0.32769993     0.06000
C370        C  0.97597663  0.37489976  0.35670694     0.03030
C371        C  0.98418172  0.38484359  0.31503270    -0.13120
C372        C  0.98906445  0.42642816  0.30264868     0.00530
C373        C  0.99044501  0.45827397  0.33307589    -0.11640
C374        C  0.98444019  0.44862177  0.37528032     0.03030
C375        C  0.97674556  0.40696562  0.38699249    -0.11060
H376        H  0.98354078  0.36030646  0.29149567     0.08620
H377        H  0.99392002  0.49063272  0.32370339     0.06150
H378        H  0.97038645  0.39976918  0.41930765     0.06000
C379        C  0.22518445  0.45714736  0.07254235     0.03030
C380        C  0.21208564  0.47236867  0.11181114    -0.13120
C381        C  0.17016171  0.46847092  0.12509485     0.00530
C382        C  0.13979484  0.45859723  0.09491590    -0.11640
C383        C  0.15130587  0.45095717  0.05354935     0.03030
C384        C  0.19362538  0.44741477  0.04308510    -0.11060
H385        H  0.23500800  0.48462396  0.13343164     0.08620
H386        H  0.10734160  0.45517149  0.10322701     0.06150
H387        H  0.20105025  0.43736895  0.01176372     0.06000
C388        C  0.48593730  0.15080212  0.12870346     0.03030
C389        C  0.49057229  0.19160254  0.11398579    -0.13120
C390        C  0.48332116  0.20107918  0.07194507     0.00530
C391        C  0.47676025  0.16797669  0.04367572    -0.11640
C392        C  0.47894302  0.12631855  0.05702463     0.03030
C393        C  0.48235978  0.11756223  0.09986231    -0.11060
H394        H  0.49581740  0.21668380  0.13634846     0.08620
H395        H  0.46932380  0.17424204  0.01136640     0.06150
H396        H  0.48063502  0.08552446  0.11064442     0.06000
C397        C  0.22396691  0.13168548  0.36836616     0.03030
C398        C  0.21734181  0.17525445  0.36685738    -0.13120
C399        C  0.17656490  0.19215531  0.36533627     0.00530
C400        C  0.14242400  0.16445041  0.36866582    -0.11640
C401        C  0.14915397  0.12093321  0.37200854     0.03030
C402        C  0.18983065  0.10480589  0.37077146    -0.11060
H403        H  0.24406507  0.19589896  0.36589920     0.08620
H404        H  0.11072932  0.17653737  0.36787307     0.06150
H405        H  0.19501580  0.07125655  0.37200460     0.06000
C406        C  0.45652988  0.12610652  0.30483316     0.03030
C407        C  0.41415901  0.11873465  0.31276029    -0.13120
C408        C  0.39990741  0.10525998  0.35172677     0.00530
C409        C  0.42955958  0.10119360  0.38431150    -0.11640
C410        C  0.47165514  0.11175640  0.37785729     0.03030
C411        C  0.48487395  0.12445035  0.33824266    -0.11060
H412        H  0.39188120  0.12409671  0.28803176     0.08620
H413        H  0.42014219  0.09133979  0.41504379     0.06150
H414        H  0.51716249  0.13322186  0.33365288     0.06000
C415        C  0.14562297  0.37229699  0.34578259     0.03030
C416        C  0.14006318  0.38730808  0.30505217    -0.13120
C417        C  0.13549621  0.43037246  0.29729565     0.00530
C418        C  0.13216106  0.45850495  0.33066531    -0.11640
C419        C  0.13705953  0.44438553  0.37159486     0.03030
C420        C  0.14498449  0.40156619  0.37910374    -0.11060
H421        H  0.14219000  0.36579590  0.27883585     0.08620
H422        H  0.12948900  0.49180952  0.32465436     0.06150
H423        H  0.15119907  0.39129090  0.41064288     0.06000
C424        C  0.45379349  0.37474914  0.03256709     0.03030
C425        C  0.41187149  0.38724725  0.03099965    -0.13120
C426        C  0.40113966  0.42958086  0.03318933     0.00530
C427        C  0.43296740  0.45975453  0.03393096    -0.11640
C428        C  0.47510569  0.44743657  0.03244271     0.03030
C429        C  0.48550663  0.40479881  0.03206291    -0.11060
H430        H  0.38747648  0.36382983  0.03227119     0.08620
H431        H  0.42547068  0.49252911  0.03739659     0.06150
H432        H  0.51797771  0.39510971  0.03398769     0.06000
O433        O  0.60199335  0.57786695  0.07886336    -0.71870
O434        O  0.52425654  0.48825399  0.07037128    -0.72090
O435        O  0.60812294  0.49399587  0.07247182    -0.71950
O436        O  0.51788402  0.57150573  0.07692204    -0.71960
O437        O  0.52393507  0.58144207  0.01021731    -0.71920
O438        O  0.60462631  0.49392903  0.00477253    -0.71940
O439        O  0.52054949  0.49780343  0.00340850    -0.71880
O440        O  0.60788650  0.57755655  0.01135858    -0.72070
V441        V  0.56316704  0.53301220  0.07346417     1.35240
V442        V  0.56422654  0.53761134  0.00865521     1.35170
C443        C  0.61911028  0.59194068  0.04640043     0.77360
C444        C  0.50809356  0.47899409  0.03549849     0.77420
C445        C  0.62087002  0.47998093  0.03782864     0.77290
C446        C  0.50606828  0.59008952  0.04429833     0.77250
O447        O  0.18071252  0.57231555  0.50265135    -0.71870
O448        O  0.17397257  0.48859535  0.41844876    -0.72090
O449        O  0.17786830  0.57346720  0.41915554    -0.71950
O450        O  0.17582876  0.48831224  0.50227161    -0.71960
O451        O  0.10810965  0.49340339  0.50430169    -0.71920
O452        O  0.11000011  0.57617694  0.42000300    -0.71940
O453        O  0.10616064  0.49182788  0.42032117    -0.71880
O454        O  0.11290505  0.57726213  0.50346445    -0.72070
V455        V  0.17579267  0.53072992  0.46052636     1.35240
V456        V  0.11062962  0.53453556  0.46193925     1.35170
C457        C  0.14804471  0.58881171  0.51740206     0.77360
C458        C  0.13905392  0.47570036  0.40533716     0.77420
C459        C  0.14410686  0.58952787  0.40586993     0.77290
C460        C  0.14143137  0.47706178  0.51788659     0.77250
O461        O  0.51543884  0.07802473  0.42807659    -0.71870
O462        O  0.60326524  0.07991788  0.50895609    -0.72090
O463        O  0.51898117  0.07895658  0.51216379    -0.71950
O464        O  0.59940305  0.07871273  0.42496497    -0.71960
O465        O  0.59979904  0.14681407  0.42611909    -0.71920
O466        O  0.51655414  0.14699901  0.51040764    -0.71940
O467        O  0.60095160  0.14799817  0.50971584    -0.71880
O468        O  0.51639454  0.14607504  0.42616466    -0.72070
V469        V  0.55925473  0.08019463  0.46859659     1.35240
V470        V  0.55836349  0.14562532  0.46823051     1.35170
C471        C  0.50194137  0.11183209  0.41253779     0.77360
C472        C  0.61699638  0.11436417  0.52300444     0.77420
C473        C  0.50371443  0.11300466  0.52570907     0.77290
C474        C  0.61322857  0.11275301  0.41087168     0.77250
O475        O  0.01538818  0.58365439  0.42220309    -0.71870
O476        O  0.01312587  0.49729315  0.50337784    -0.72090
O477        O  0.01618487  0.49936692  0.41967419    -0.71950
O478        O  0.01240246  0.58118904  0.50664060    -0.71960
O479        O  0.94485121  0.58468750  0.49986786    -0.71920
O480        O  0.94844661  0.49523966  0.42098271    -0.71940
O481        O  0.94528076  0.50114975  0.50454067    -0.71880
O482        O  0.94786479  0.57961565  0.41601859    -0.72070
V483        V  0.01303982  0.54044939  0.46287601     1.35240
V484        V  0.94788849  0.54022061  0.46030002     1.35170
C485        C  0.98199374  0.59555038  0.40458872     0.77360
C486        C  0.97878883  0.48549045  0.51849027     0.77420
C487        C  0.98298430  0.48245149  0.40658616     0.77290
C488        C  0.97784681  0.59682519  0.51793622     0.77250
O489        O  0.51207660  0.98325777  0.50117729    -0.71870
O490        O  0.59767920  0.98998578  0.42101240    -0.72090
O491        O  0.51366287  0.98506114  0.41794402    -0.71950
O492        O  0.59496572  0.98582380  0.50491872    -0.71960
O493        O  0.59982381  0.91795785  0.50039228    -0.71920
O494        O  0.51680220  0.91700450  0.41583838    -0.71940
O495        O  0.60090555  0.92213662  0.41610682    -0.71880
O496        O  0.51583999  0.91520421  0.49995961    -0.72070
V497        V  0.55477915  0.98464011  0.46105854     1.35240
V498        V  0.55829743  0.91931242  0.45812519     1.35170
C499        C  0.49984693  0.94861213  0.51475440     0.77360
C500        C  0.61358007  0.95781452  0.40441843     0.77420
C501        C  0.50097070  0.95067198  0.40271244     0.77290
C502        C  0.61066870  0.95177010  0.51772751     0.77250
O503        O  0.60036323  0.58755742  0.91818198    -0.71870
O504        O  0.52109639  0.49984498  0.91258618    -0.72090
O505        O  0.60433509  0.50347040  0.91740745    -0.71950
O506        O  0.51618562  0.58391437  0.91351017    -0.71960
O507        O  0.52288789  0.58771393  0.84624333    -0.71920
O508        O  0.60471677  0.50049049  0.84970273    -0.71940
O509        O  0.52097269  0.50359706  0.84490542    -0.71880
O510        O  0.60711953  0.58468788  0.85078608    -0.72070
V511        V  0.56054950  0.54378682  0.91413387     1.35240
V512        V  0.56387852  0.54416093  0.84915539     1.35170
C513        C  0.61802476  0.60016424  0.88548369     0.77360
C514        C  0.50726264  0.48730879  0.87782972     0.77420
C515        C  0.61863604  0.48750880  0.88427191     0.77290
C516        C  0.50486078  0.59985044  0.87927152     0.77250
O517        O  0.01654732  0.99424364  0.41234435    -0.71870
O518        O  0.10177018  0.07733563  0.40878180    -0.72090
O519        O  0.01776200  0.07844734  0.41344964    -0.71950
O520        O  0.10057530  0.99293383  0.40844885    -0.71960
O521        O  0.09694611  0.99272784  0.34074595    -0.71920
O522        O  0.01417064  0.07901101  0.34573520    -0.71940
O523        O  0.09793411  0.07723816  0.34108488    -0.71880
O524        O  0.01303030  0.99496585  0.34462819    -0.72070
V525        V  0.05911944  0.03575111  0.40944370     1.35240
V526        V  0.05561674  0.03596223  0.34438347     1.35170
C527        C  0.00014244  0.98088351  0.37887909     0.77360
C528        C  0.11427720  0.09128225  0.37417639     0.77420
C529        C  0.00180440  0.09308656  0.38055180     0.77290
C530        C  0.11281604  0.97826929  0.37390478     0.77250
O531        O  0.01480556  0.07876517  0.58406462    -0.71870
O532        O  0.09972351  0.99460645  0.58901930    -0.72090
O533        O  0.09878429  0.07956785  0.58713114    -0.71950
O534        O  0.01590231  0.99469633  0.58582783    -0.71960
O535        O  0.01531586  0.99627855  0.51803303    -0.71920
O536        O  0.10446018  0.07438757  0.51976267    -0.71940
O537        O  0.09893600  0.99006251  0.52136664    -0.71880
O538        O  0.02058565  0.08027860  0.51659016    -0.72070
V539        V  0.05747364  0.03689847  0.58524944     1.35240
V540        V  0.05981540  0.03525254  0.52023025     1.35170
C541        C  0.00369112  0.09417752  0.54951423     0.77360
C542        C  0.11277122  0.97713144  0.55598572     0.77420
C543        C  0.11580094  0.09126025  0.55367820     0.77290
C544        C  0.00097005  0.98186041  0.55159024     0.77250
O545        O  0.50931409  0.08491953  0.92723148    -0.71870
O546        O  0.51194659  0.99410106  0.00315722    -0.72090
O547        O  0.50961970  0.00165468  0.91979244    -0.71950
O548        O  0.51130672  0.07801062  0.01092118    -0.71960
O549        O  0.44341013  0.08055109  0.01009525    -0.71920
O550        O  0.44184695  0.99857318  0.92339092    -0.71940
O551        O  0.44416949  0.99625476  0.00728716    -0.71880
O552        O  0.44141946  0.08219433  0.92605789    -0.72070
V553        V  0.50923173  0.03967188  0.96540604     1.35240
V554        V  0.44398240  0.03942072  0.96678231     1.35170
C555        C  0.47491983  0.09786892  0.91269832     0.77360
C556        C  0.47855000  0.98005162  0.01834251     0.77420
C557        C  0.47551323  0.98713955  0.90623989     0.77290
C558        C  0.47768866  0.09289291  0.02541782     0.77250
O559        O  0.10792002  0.41683041  0.00289322    -0.71870
O560        O  0.02056434  0.41953007  0.92159356    -0.72090
O561        O  0.10472505  0.41972479  0.91888956    -0.71950
O562        O  0.02373182  0.41688989  0.00555515    -0.71960
O563        O  0.01912961  0.48484990  0.00399657    -0.71920
O564        O  0.10822679  0.48732365  0.92650068    -0.71940
O565        O  0.02449088  0.48748648  0.92048378    -0.71880
O566        O  0.10244258  0.48441700  0.00972380    -0.72070
V567        V  0.06418613  0.41940550  0.96228516     1.35240
V568        V  0.06360543  0.48471551  0.96504483     1.35170
C569        C  0.11916892  0.45037808  0.02079999     0.77360
C570        C  0.00838827  0.45410754  0.90667977     0.77420
C571        C  0.12090961  0.45423482  0.90879466     0.77290
C572        C  0.00729667  0.45049548  0.01897330     0.77250
O573        O  0.61008781  0.08151258  0.92107996    -0.71870
O574        O  0.60485720  0.99495865  0.00154270    -0.72090
O575        O  0.60446867  0.07908266  0.00455107    -0.71950
O576        O  0.60977617  0.99819507  0.91821203    -0.71960
O577        O  0.67771913  0.99853556  0.92126073    -0.71920
O578        O  0.67220372  0.07735717  0.01035351    -0.71940
O579        O  0.67272056  0.99333432  0.00478665    -0.71880
O580        O  0.67780140  0.08252152  0.92702680    -0.72070
V581        V  0.60864156  0.03841878  0.96151041     1.35240
V582        V  0.67383486  0.03793095  0.96580632     1.35170
C583        C  0.64483794  0.09647073  0.91024601     0.77360
C584        C  0.63792910  0.97934194  0.01664320     0.77420
C585        C  0.63734195  0.09187385  0.02210611     0.77290
C586        C  0.64442572  0.98521879  0.90468109     0.77250
O587        O  0.10465679  0.57055201  0.99957835    -0.71870
O588        O  0.01932984  0.57780382  0.91696751    -0.72090
O589        O  0.10333839  0.57357090  0.91522860    -0.71950
O590        O  0.02067268  0.57509901  0.00066317    -0.71960
O591        O  0.02370461  0.64309473  0.00286306    -0.71920
O592        O  0.10758874  0.64136376  0.91937239    -0.71940
O593        O  0.02300717  0.64575980  0.91915443    -0.71880
O594        O  0.10752261  0.63848082  0.00286648    -0.72070
V595        V  0.06215199  0.57556267  0.95813692     1.35240
V596        V  0.06538038  0.64085091  0.96088901     1.35170
C597        C  0.12013693  0.60322492  0.01566411     0.77360
C598        C  0.00640889  0.61294248  0.90434541     0.77420
C599        C  0.11990795  0.60724782  0.90323269     0.77290
C600        C  0.00809008  0.60946043  0.01606356     0.77250
C601        C  0.26689866  0.11450198  0.36665532    -0.06220
C602        C  0.28306677  0.09987606  0.32888337    -0.17350
C603        C  0.32551631  0.08957226  0.32538314     0.10980
C604        C  0.35364866  0.10037331  0.35835071    -0.06140
C605        C  0.33607969  0.11089057  0.39727554    -0.17380
C606        C  0.29277252  0.11434342  0.40194137     0.11010
S607        S  0.34048354  0.05995440  0.27964859    -0.32350
S608        S  0.27138035  0.11424216  0.45329102    -0.32350
H609        H  0.23426534  0.09329895  0.44282688     0.29020
H610        H  0.37748963  0.04410409  0.29719519     0.29010
H611        H  0.26242994  0.09576635  0.30231714     0.19610
H612        H  0.35560505  0.11620366  0.42436437     0.19610
C613        C  0.16962067  0.23843920  0.36004043    -0.06220
C614        C  0.14096592  0.25934854  0.38611534    -0.17350
C615        C  0.13253125  0.30237100  0.38184929     0.10980
C616        C  0.15427310  0.32645138  0.35233106    -0.06140
C617        C  0.18352943  0.30573029  0.32673353    -0.17380
C618        C  0.19052065  0.26230785  0.32936163     0.11010
S619        S  0.09169926  0.32425396  0.41316772    -0.32350
S620        S  0.22427267  0.23925838  0.29048176    -0.32350
H621        H  0.20121907  0.20208127  0.28606977     0.29020
H622        H  0.07461719  0.34927704  0.38135735     0.29010
H623        H  0.12425625  0.24185715  0.40952790     0.19610
H624        H  0.20034600  0.32333656  0.30349575     0.19610
C625        C  0.46344179  0.33109244  0.04292432    -0.06220
C626        C  0.48621226  0.30608876  0.01501509    -0.17350
C627        C  0.49335821  0.26347947  0.02327590     0.10980
C628        C  0.47702418  0.24565939  0.05999972    -0.06140
C629        C  0.45405594  0.27131682  0.08740506    -0.17380
C630        C  0.44830733  0.31367151  0.08009575     0.11010
S631        S  0.52461484  0.23315556  0.98766170    -0.32350
S632        S  0.42218219  0.34389135  0.12020218    -0.32350
H633        H  0.44510434  0.38081256  0.11414795     0.29020
H634        H  0.52495162  0.26266061  0.95529222     0.29010
H635        H  0.49820942  0.32003591  0.98684914     0.19610
H636        H  0.44073682  0.25857287  0.11540445     0.19610
C637        C  0.47971891  0.14501544  0.17411011    -0.06220
C638        C  0.50691426  0.11934552  0.19696701    -0.17350
C639        C  0.50199083  0.11452641  0.24027251     0.10980
C640        C  0.46933037  0.13599959  0.26124749    -0.06140
C641        C  0.44382990  0.16341641  0.23836781    -0.17380
C642        C  0.44755680  0.16698605  0.19522349     0.11010
S643        S  0.53641562  0.07946935  0.26761073    -0.32350
S644        S  0.40811631  0.19640076  0.16724518    -0.32350
H645        H  0.39011018  0.21649954  0.20201941     0.29020
H646        H  0.56751765  0.07813163  0.23711837     0.29010
H647        H  0.53166570  0.10277467  0.18075928     0.19610
H648        H  0.41919331  0.18050735  0.25418015     0.19610
C649        C  0.16060788  0.46622104  0.17091548    -0.06220
C650        C  0.19110967  0.44755451  0.19646922    -0.17350
C651        C  0.18432497  0.43904077  0.23809049     0.10980
C652        C  0.14463150  0.44612834  0.25520579    -0.06140
C653        C  0.11421882  0.46719638  0.23147157    -0.17380
C654        C  0.12204689  0.47821349  0.18960386     0.11010
S655        S  0.22801939  0.41858270  0.26761003    -0.32350
S656        S  0.08386203  0.50964484  0.16211384    -0.32350
H657        H  0.05316160  0.50989291  0.19337562     0.29020
H658        H  0.21736637  0.43869667  0.30527436     0.29010
H659        H  0.22058085  0.43813057  0.18412953     0.19610
H660        H  0.08447337  0.47462868  0.24568626     0.19610
C661        C  0.27115901  0.45121311  0.06266526    -0.06220
C662        C  0.28461347  0.45042993  0.02078750    -0.17350
C663        C  0.32604423  0.44086149  0.01036962     0.10980
C664        C  0.35708473  0.44072695  0.04154934    -0.06140
C665        C  0.34461470  0.44266132  0.08312093    -0.17380
C666        C  0.30228758  0.44336837  0.09371884     0.11010
S667        S  0.33520316  0.42145938  0.95859938    -0.32350
S668        S  0.29150955  0.42357449  0.14477999    -0.32350
H669        H  0.25739391  0.39933726  0.13111128     0.29020
H670        H  0.37876429  0.42548279  0.95807898     0.29010
H671        H  0.26281612  0.45455338  0.99537516     0.19610
H672        H  0.36782560  0.43785274  0.10738447     0.19610
C673        C  0.65091746  0.12281016  0.25959080    -0.06220
C674        C  0.67446309  0.09875851  0.23120968    -0.17350
C675        C  0.67109000  0.10473873  0.18821339     0.10980
C676        C  0.64139039  0.13366990  0.17249963    -0.06140
C677        C  0.61562268  0.15542544  0.20077536    -0.17380
C678        C  0.62078759  0.15128642  0.24391025     0.11010
S679        S  0.70796300  0.07680742  0.15582829    -0.32350
S680        S  0.58996859  0.18544187  0.27671672    -0.32350
H681        H  0.62246473  0.19439445  0.30497686     0.29020
H682        H  0.71554110  0.11063749  0.12908072     0.29010
H683        H  0.69754830  0.07670056  0.24281133     0.19610
H684        H  0.59255561  0.17746646  0.18912961     0.19610
C685        C  0.64514771  0.24217892  0.06137004    -0.06220
C686        C  0.61951352  0.27244420  0.08048447    -0.17350
C687        C  0.62615064  0.31527286  0.07461834     0.10980
C688        C  0.65766344  0.32852479  0.04679007    -0.06140
C689        C  0.68114840  0.29799829  0.02534194    -0.17380
C690        C  0.67647192  0.25537466  0.03345644     0.11010
S691        S  0.59571689  0.35065100  0.10652454    -0.32350
S692        S  0.71378838  0.22019141  0.00957241    -0.32350
H693        H  0.71843767  0.19438041  0.04465849     0.29020
H694        H  0.62934907  0.37720871  0.11628001     0.29010
H695        H  0.59541166  0.26262901  0.10190183     0.19610
H696        H  0.70514940  0.30757665  0.00370990     0.19610
C697        C  0.95497813  0.24374544  0.37825525    -0.06220
C698        C  0.93141213  0.26548307  0.34826310    -0.17350
C699        C  0.93510053  0.30861524  0.34325535     0.10980
C700        C  0.96476008  0.33107510  0.36718005    -0.06140
C701        C  0.98671186  0.30998967  0.39872406    -0.17380
C702        C  0.98275976  0.26655921  0.40414980     0.11010
S703        S  0.89925767  0.33340391  0.30738572    -0.32350
S704        S  0.01424147  0.24241299  0.44415671    -0.32350
H705        H  0.98467220  0.21206679  0.45507899     0.29020
H706        H  0.89656224  0.37125154  0.32996030     0.29010
H707        H  0.90928028  0.24871214  0.32876632     0.19610
H708        H  0.00728115  0.32748076  0.41903119     0.19610
C709        C  0.84986388  0.13126904  0.38224028    -0.06220
C710        C  0.82137500  0.15169147  0.40883935    -0.17350
C711        C  0.77831988  0.15049276  0.40137386     0.10980
C712        C  0.76258255  0.12586368  0.36799604    -0.06140
C713        C  0.79105355  0.10311663  0.34316424    -0.17380
C714        C  0.83418672  0.10621598  0.34922693     0.11010
S715        S  0.74617883  0.18435578  0.43323718    -0.32350
S716        S  0.86706929  0.07973354  0.31179707    -0.32350
H717        H  0.89402546  0.11388662  0.30623124     0.29020
H718        H  0.71893743  0.19591790  0.40072573     0.29010
H719        H  0.83301596  0.17119279  0.43410194     0.19610
H720        H  0.77959891  0.08331501  0.31806179     0.19610
C721        C  0.97100706  0.44131104  0.17052447    -0.06220
C722        C  0.94512824  0.46265183  0.19908801    -0.17350
C723        C  0.95042671  0.45829155  0.24204612     0.10980
C724        C  0.98523691  0.43601054  0.25767110    -0.06140
C725        C  0.01284540  0.41685380  0.22939514    -0.17380
C726        C  0.00542884  0.41798374  0.18628076     0.11010
S727        S  0.90863400  0.47711165  0.27483417    -0.32350
S728        S  0.03861723  0.38548093  0.15415986    -0.32350
H729        H  0.00618637  0.37149318  0.12790116     0.29020
H730        H  0.90861037  0.44259804  0.30175110     0.29010
H731        H  0.91868754  0.48076080  0.18792182     0.19610
H732        H  0.03881928  0.39843605  0.24120500     0.19610
C733        C  0.85739924  0.44380441  0.06271104    -0.06220
C734        C  0.84354425  0.41931927  0.02884648    -0.17350
C735        C  0.80095800  0.41478774  0.01988672     0.10980
C736        C  0.77089784  0.43485769  0.04550532    -0.06140
C737        C  0.78460459  0.46089331  0.07809597    -0.17380
C738        C  0.82720247  0.46573296  0.08689822     0.11010
S739        S  0.78715476  0.38209599  0.97585752    -0.32350
S740        S  0.84043518  0.49974959  0.13001358    -0.32350
H741        H  0.87769853  0.51451206  0.11237237     0.29020
H742        H  0.74881736  0.40201127  0.96747393     0.29010
H743        H  0.86601582  0.40244989  0.00983669     0.19610
H744        H  0.76185086  0.47645574  0.09787350     0.19610
C745        C  0.98050313  0.63515489  0.25296107    -0.06220
C746        C  0.00259591  0.65901426  0.22366552    -0.17350
C747        C  0.99370457  0.65612355  0.18093345     0.10980
C748        C  0.96641496  0.62478346  0.16603543    -0.06140
C749        C  0.94551404  0.59976189  0.19507189    -0.17380
C750        C  0.95030577  0.60644414  0.23803595     0.11010
S751        S  0.01257506  0.69745576  0.14813332    -0.32350
S752        S  0.91248644  0.58241591  0.27152203    -0.32350
H753        H  0.90569166  0.61830460  0.29635300     0.29020
H754        H  0.97708442  0.69943281  0.12222682     0.29010
H755        H  0.02423693  0.68278134  0.23440718     0.19610
H756        H  0.92283746  0.57702208  0.18418107     0.19610
C757        C  0.85692335  0.62233440  0.05521946    -0.06220
C758        C  0.82843959  0.60079204  0.08025074    -0.17350
C759        C  0.78540478  0.60613699  0.07605196     0.10980
C760        C  0.76949978  0.63281457  0.04480068    -0.06140
C761        C  0.79769336  0.65302055  0.01820992    -0.17380
C762        C  0.84104668  0.64860509  0.02335004     0.11010
S763        S  0.75303473  0.58115741  0.11441096    -0.32350
S764        S  0.87368380  0.68038796  0.99076450    -0.32350
H765        H  0.90195085  0.69122407  0.02269542     0.29020
H766        H  0.72738125  0.61640247  0.12149027     0.29010
H767        H  0.83996035  0.58161171  0.10535658     0.19610
H768        H  0.78580004  0.67392023  0.99440186     0.19610
C769        C  0.84814106  0.95420901  0.36255249    -0.06220
C770        C  0.82843450  0.98226120  0.39030203    -0.17350
C771        C  0.78616397  0.99362907  0.38480285     0.10980
C772        C  0.76205676  0.97321267  0.35368157    -0.06140
C773        C  0.78290003  0.94715143  0.32498021    -0.17380
C774        C  0.82568987  0.94045305  0.32725323     0.11010
S775        S  0.76620403  0.03583103  0.41654670    -0.32350
S776        S  0.85014520  0.91878138  0.28157598    -0.32350
H777        H  0.88918322  0.93773124  0.28836029     0.29020
H778        H  0.72910364  0.04223772  0.39429878     0.29010
H779        H  0.84605714  0.99565410  0.41599577     0.19610
H780        H  0.76602183  0.93283554  0.29931528     0.19610
C781        C  0.96438717  0.74545586  0.36058139    -0.06220
C782        C  0.93491608  0.76523452  0.33487471    -0.17350
C783        C  0.92857850  0.80838366  0.33629770     0.10980
C784        C  0.94842875  0.83302100  0.36736256    -0.06140
C785        C  0.97674191  0.81295399  0.39438620    -0.17380
C786        C  0.98559049  0.76986741  0.39079157     0.11010
S787        S  0.89955499  0.82981473  0.29352035    -0.32350
S788        S  0.02538215  0.74843160  0.42417910    -0.32350
H789        H  0.04281808  0.72190780  0.39361465     0.29020
H790        H  0.92603589  0.86456084  0.28928032     0.29010
H791        H  0.91841584  0.74717251  0.31132903     0.19610
H792        H  0.99305836  0.83128078  0.41754079     0.19610
C793        C  0.65035835  0.96252788  0.25360237    -0.06220
C794        C  0.63087838  0.99195525  0.22770444    -0.17350
C795        C  0.62215555  0.98240514  0.18567066     0.10980
C796        C  0.63705203  0.94419014  0.16825218    -0.06140
C797        C  0.65939538  0.91650062  0.19415348    -0.17380
C798        C  0.66468001  0.92435534  0.23647328     0.11010
S799        S  0.58839597  0.01732775  0.15685276    -0.32350
S800        S  0.69130467  0.88465421  0.26658748    -0.32350
H801        H  0.66860824  0.89095442  0.30348148     0.29020
H802        H  0.59967888  0.05346596  0.17910596     0.29010
H803        H  0.62048540  0.02144614  0.24104891     0.19610
H804        H  0.67289585  0.88797085  0.18160957     0.19610
C805        C  0.64337334  0.83040576  0.06530083    -0.06220
C806        C  0.61648291  0.80447388  0.04234733    -0.17350
C807        C  0.62475609  0.76139201  0.03808104     0.10980
C808        C  0.65970987  0.74319345  0.05841580    -0.06140
C809        C  0.68614487  0.76942795  0.08177286    -0.17380
C810        C  0.67916854  0.81256468  0.08437271     0.11010
S811        S  0.59031740  0.73153641  0.00536646    -0.32350
S812        S  0.71790631  0.84317618  0.11185431    -0.32350
H813        H  0.71339977  0.87930179  0.08737447     0.29020
H814        H  0.62217828  0.70784322  0.98618823     0.29010
H815        H  0.58900422  0.81785069  0.02762253     0.19610
H816        H  0.71303194  0.75636525  0.09778170     0.19610
C817        C  0.45907442  0.93963977  0.25128364    -0.06220
C818        C  0.42672103  0.92163740  0.22725242    -0.17350
C819        C  0.42989149  0.91697390  0.18409772     0.10860
C820        C  0.46729203  0.92799107  0.16404962    -0.06140
C821        C  0.50056300  0.94355336  0.18783818    -0.17380
C822        C  0.49661109  0.95018753  0.23086948     0.11010
S823        S  0.38473685  0.89750931  0.15635530    -0.32350
S824        S  0.54022022  0.97316381  0.25717408    -0.32350
H825        H  0.51632576  0.99768753  0.28464701     0.29020
H826        H  0.39181375  0.91976588  0.11940189     0.29010
H827        H  0.39801997  0.91194986  0.24201676     0.19610
H828        H  0.52973216  0.95077805  0.17263501     0.19610
C829        C  0.47540027  0.82611295  0.04758828    -0.06220
C830        C  0.50177326  0.79738742  0.06770004    -0.17350
C831        C  0.49472288  0.75438017  0.06513874     0.10980
C832        C  0.46235572  0.73887313  0.03905019    -0.06140
C833        C  0.43820194  0.76755751  0.01605822    -0.17380
C834        C  0.44373403  0.81086302  0.02067866     0.11010
S835        S  0.52497085  0.72206668  0.10012323    -0.32350
S836        S  0.40718805  0.84458488  0.99406761    -0.32350
H837        H  0.40059330  0.87151992  0.02833809     0.29020
H838        H  0.49086222  0.69775599  0.11288566     0.29010
H839        H  0.52598444  0.80880652  0.08855973     0.19610
H840        H  0.41353475  0.75617563  0.99576619     0.19610
C841        C  0.26430247  0.94516971  0.36416588    -0.06220
C842        C  0.28558274  0.97064772  0.39290802    -0.17350
C843        C  0.32857755  0.97834933  0.38896577     0.10980
C844        C  0.35093130  0.95962764  0.35547224    -0.06140
C845        C  0.32862389  0.93476334  0.32659544    -0.17380
C846        C  0.28591501  0.92893524  0.32951173     0.11010
S847        S  0.35214168  0.01176351  0.42780341    -0.32350
S848        S  0.26087031  0.90050486  0.28749349    -0.32350
H849        H  0.22224884  0.92151274  0.29053567     0.29020
H850        H  0.38327920  0.02692734  0.40141893     0.29010
H851        H  0.26864563  0.98408325  0.41877960     0.19610
H852        H  0.34453680  0.91906776  0.30113844     0.19610
C853        C  0.16529291  0.82792153  0.36641121    -0.06220
C854        C  0.19047269  0.80624606  0.33751844    -0.17350
C855        C  0.18960861  0.76257340  0.33378942     0.10980
C856        C  0.16092291  0.73914177  0.35764215    -0.06140
C857        C  0.13611968  0.76065672  0.38702322    -0.17380
C858        C  0.13819524  0.80450204  0.39161788     0.11010
S859        S  0.22792556  0.73881415  0.29975062    -0.32350
S860        S  0.10730942  0.82930375  0.43122715    -0.32350
H861        H  0.07129815  0.82826034  0.40602340     0.29020
H862        H  0.23202750  0.70156093  0.32260584     0.29010
H863        H  0.21204895  0.82345762  0.31826316     0.19610
H864        H  0.11486334  0.74325003  0.40634134     0.19610
C865        C  0.26651749  0.61717837  0.07028032    -0.06220
C866        C  0.29180666  0.58551607  0.05367138    -0.17350
C867        C  0.33510255  0.59051046  0.04997892     0.10980
C868        C  0.35428385  0.62858651  0.06358624    -0.06140
C869        C  0.32845856  0.65897175  0.08284887    -0.17380
C870        C  0.28517869  0.65424493  0.08530844     0.11010
S871        S  0.36174826  0.54650116  0.02665262    -0.32350
S872        S  0.25543895  0.69705518  0.10756627    -0.32350
H873        H  0.21897188  0.69026393  0.08393035     0.29020
H874        H  0.39247168  0.56832980  0.00488562     0.29010
H875        H  0.27755029  0.55641306  0.04347365     0.19610
H876        H  0.34185892  0.68736753  0.09566718     0.19610
C877        C  0.14103737  0.62244327  0.25441201    -0.06220
C878        C  0.12249320  0.64848402  0.22421515    -0.17350
C879        C  0.12848749  0.64133415  0.18165256     0.10980
C880        C  0.14962759  0.60490023  0.16813171    -0.06140
C881        C  0.16572432  0.57723767  0.19791406    -0.17380
C882        C  0.16323120  0.58624434  0.24055976     0.11010
S883        S  0.11714466  0.68400799  0.14695086    -0.32350
S884        S  0.19445764  0.55344653  0.27417191    -0.32350
H885        H  0.21158199  0.58712774  0.29690982     0.29020
H886        H  0.09163903  0.66018823  0.12032278     0.29010
H887        H  0.10575862  0.67652370  0.23370429     0.19610
H888        H  0.18418185  0.55056895  0.18765245     0.19610
C889        C  0.85505504  0.63470221  0.86891610    -0.06220
C890        C  0.83413420  0.60905890  0.89735787    -0.17350
C891        C  0.79132575  0.61440860  0.90561572     0.10980
C892        C  0.76849225  0.64587535  0.88426513    -0.06140
C893        C  0.79000122  0.67164013  0.85620967    -0.17380
C894        C  0.83274345  0.66756764  0.84961975     0.11010
S895        S  0.76840844  0.58032989  0.94374374    -0.32350
S896        S  0.85701215  0.70649462  0.81719269    -0.32350
H897        H  0.89584192  0.70565954  0.83788536     0.29020
H898        H  0.73860731  0.60944923  0.95803206     0.29010
H899        H  0.85125299  0.58456524  0.91301755     0.19610
H900        H  0.77345631  0.69582436  0.83925220     0.19610
C901        C  0.95880486  0.61933258  0.75566839    -0.06220
C902        C  0.98461453  0.65229130  0.74333916    -0.17350
C903        C  0.99017011  0.66201066  0.70131560     0.10980
C904        C  0.97033394  0.63722112  0.67003225    -0.06140
C905        C  0.94512710  0.60370649  0.68244559    -0.17380
C906        C  0.93868459  0.59485170  0.72461887     0.11010
S907        S  0.02436224  0.70562433  0.69051827    -0.32350
S908        S  0.90288250  0.55316949  0.73636195    -0.32350
H909        H  0.92006360  0.54397653  0.77554840     0.29020
H910        H  0.03812128  0.69132089  0.65133328     0.29010
H911        H  0.99951656  0.67174238  0.76685292     0.19610
H912        H  0.92890702  0.58518512  0.65907756     0.19610
C913        C  0.64528861  0.94739786  0.75389373    -0.06220
C914        C  0.61875922  0.97560050  0.73315784    -0.17350
C915        C  0.62336803  0.98366496  0.69040908     0.10980
C916        C  0.65489383  0.96228351  0.66775445    -0.06140
C917        C  0.68155921  0.93452363  0.68916628    -0.17380
C918        C  0.67822059  0.92820847  0.73173380     0.11010
S919        S  0.58916122  0.02224237  0.66749106    -0.32350
S920        S  0.71817341  0.89636990  0.75601658    -0.32350
H921        H  0.71854721  0.91847116  0.79411345     0.29020
H922        H  0.61716467  0.03473167  0.63649950     0.29010
H923        H  0.59458719  0.99150051  0.75044599     0.19610
H924        H  0.70595778  0.91769574  0.67262302     0.19610
C925        C  0.64282487  0.83588706  0.85959245    -0.06220
C926        C  0.66565649  0.81057733  0.83166257    -0.17350
C927        C  0.67163583  0.76799054  0.83858919     0.10980
C928        C  0.65619391  0.74992442  0.87539933    -0.06140
C929        C  0.63290240  0.77454196  0.90309957    -0.17380
C930        C  0.62572602  0.81712541  0.89566132     0.11010
S931        S  0.69944098  0.73856820  0.79911345    -0.32350
S932        S  0.59493356  0.84502840  0.93378884    -0.32350
H933        H  0.57642356  0.87273331  0.90515150     0.29020
H934        H  0.67890498  0.70039443  0.80584960     0.29010
H935        H  0.67964730  0.82405018  0.80422253     0.19610
H936        H  0.62082847  0.76064540  0.93102318     0.19610
C937        C  0.95063442  0.83292292  0.55316362    -0.06220
C938        C  0.92130313  0.81151314  0.57758593    -0.17350
C939        C  0.92156036  0.76813988  0.58036511     0.10980
C940        C  0.95404203  0.74514636  0.56129999    -0.06140
C941        C  0.98338569  0.76615500  0.53693016    -0.17380
C942        C  0.98201788  0.80969096  0.53243188     0.11010
S943        S  0.87861793  0.74406409  0.60741557    -0.32350
S944        S  0.02120739  0.83329259  0.50032313    -0.32350
H945        H  0.99482456  0.86426706  0.48353759     0.29020
H946        H  0.87973307  0.70625437  0.58461865     0.29010
H947        H  0.89704216  0.82869712  0.59397708     0.19610
H948        H  0.00768904  0.74845501  0.52166119     0.19610
C949        C  0.84986525  0.94555248  0.55227130    -0.06220
C950        C  0.82427152  0.95153625  0.51761741    -0.17350
C951        C  0.78080289  0.95152412  0.52128066     0.10980
C952        C  0.76179533  0.94672637  0.56091164    -0.06140
C953        C  0.78833118  0.93746991  0.59492533    -0.17380
C954        C  0.83163537  0.93755351  0.59125736     0.11010
S955        S  0.75297803  0.95366753  0.47321712    -0.32350
S956        S  0.86185631  0.92399129  0.63693575    -0.32350
H957        H  0.89727447  0.94753104  0.62676806     0.29020
H958        H  0.72632051  0.98634403  0.48625338     0.29010
H959        H  0.83834088  0.95414209  0.48705046     0.19610
H960        H  0.77549339  0.92940011  0.62495114     0.19610
C961        C  0.35416056  0.64925644  0.87244322    -0.06220
C962        C  0.33407237  0.66729445  0.83796421    -0.17350
C963        C  0.29065277  0.66691992  0.83415618     0.10980
C964        C  0.26667295  0.64292453  0.86227689    -0.06140
C965        C  0.28658454  0.62676967  0.89787166    -0.17380
C966        C  0.32947133  0.63248304  0.90427160     0.11010
S967        S  0.26787394  0.70038173  0.79487176    -0.32350
S968        S  0.35000547  0.62271145  0.95507909    -0.32350
H969        H  0.37979225  0.65490818  0.95534779     0.29020
H970        H  0.22895962  0.70476193  0.81471319     0.29010
H971        H  0.35225922  0.68401210  0.81507154     0.19610
H972        H  0.26877413  0.61009840  0.92104678     0.19610
C973        C  0.16861164  0.58995321  0.75430701    -0.06220
C974        C  0.12834923  0.59856881  0.73863615    -0.17350
C975        C  0.12191219  0.60556237  0.69613399     0.10980
C976        C  0.15617771  0.60837032  0.66933761    -0.06140
C977        C  0.19505502  0.59410501  0.68311604    -0.17380
C978        C  0.20118605  0.58265805  0.72469774     0.11010
S979        S  0.06958052  0.60927714  0.67711115    -0.32350
S980        S  0.25109265  0.55862292  0.73641253    -0.32350
H981        H  0.24275518  0.54920115  0.77794250     0.29020
H982        H  0.07764209  0.59415469  0.63667133     0.29010
H983        H  0.10191758  0.60185071  0.75932295     0.19610
H984        H  0.22092592  0.59241012  0.66146258     0.19610
C985        C  0.26339607  0.93018243  0.55453982    -0.06220
C986        C  0.28790291  0.90216355  0.57802221    -0.17350
C987        C  0.33107572  0.90534364  0.58031739     0.10980
C988        C  0.35133453  0.93971045  0.56225373    -0.06140
C989        C  0.32754692  0.96840671  0.53899572    -0.17380
C990        C  0.28399435  0.96386823  0.53449250     0.11010
S991        S  0.35848117  0.86299448  0.60524202    -0.32350
S992        S  0.25742170  0.00205716  0.50282644    -0.32350
H993        H  0.22910201  0.97331680  0.48523424     0.29020
H994        H  0.39389413  0.86507326  0.57953012     0.29010
H995        H  0.27350973  0.87669980  0.59466401     0.19610
H996        H  0.34291790  0.99484410  0.52477467     0.19610
C997        C  0.15319977  0.82421540  0.56884156    -0.06220
C998        C  0.12772552  0.80058494  0.54214985    -0.17350
C999        C  0.12421673  0.75688303  0.54631554     0.10980
C1000       C  0.14732229  0.73551975  0.57766497    -0.06140
C1001       C  0.17161841  0.75981162  0.60528536    -0.17380
C1002       C  0.17406128  0.80345150  0.60182102     0.11010
S1003       S  0.08957694  0.73065310  0.51061455    -0.32350
S1004       S  0.20461260  0.83086482  0.64067156    -0.32350
H1005       H  0.18190003  0.86865125  0.63875182     0.29020
H1006       H  0.07425395  0.70244300  0.54033809     0.29010
H1007       H  0.11108694  0.81624489  0.51738731     0.19610
H1008       H  0.18965744  0.74471900  0.62960499     0.19610
C1009       C  0.46567108  0.75162420  0.86946388    -0.06220
C1010       C  0.44491633  0.77282932  0.83731977    -0.17350
C1011       C  0.44723512  0.81605588  0.83393935     0.10980
C1012       C  0.47472552  0.83862041  0.86023800    -0.06140
C1013       C  0.49454755  0.81778332  0.89310723    -0.17380
C1014       C  0.48984623  0.77460885  0.89826338     0.11010
S1015       S  0.41025150  0.84061023  0.79916236    -0.32350
S1016       S  0.51372400  0.75117063  0.94295640    -0.32350
H1017       H  0.48280929  0.72097837  0.94990224     0.29020
H1018       H  0.40639942  0.87807898  0.82220706     0.29010
H1019       H  0.42438526  0.75579843  0.81630998     0.19610
H1020       H  0.51254148  0.83542688  0.91552536     0.19610
C1021       C  0.48097407  0.94493875  0.75304714    -0.06220
C1022       C  0.46591521  0.91120816  0.72870009    -0.17350
C1023       C  0.46078871  0.91349381  0.68596437     0.10980
C1024       C  0.46574838  0.95194188  0.66582146    -0.06140
C1025       C  0.48050707  0.98647884  0.68892405    -0.17380
C1026       C  0.48959996  0.98310395  0.73197063     0.11010
S1027       S  0.44859160  0.86526005  0.65908888    -0.32350
S1028       S  0.51338666  0.02805140  0.75658389    -0.32350
H1029       H  0.53539987  0.00558073  0.78715844     0.29020
H1030       H  0.46898463  0.87502224  0.62174575     0.29010
H1031       H  0.45802742  0.88170600  0.74245643     0.19610
H1032       H  0.48538228  0.01601390  0.67327369     0.19610
C1033       C  0.46913927  0.24906941  0.87523143    -0.06220
C1034       C  0.49504912  0.27515253  0.85177509    -0.17350
C1035       C  0.49273963  0.31871178  0.85545247     0.10980
C1036       C  0.46506834  0.33711457  0.88472666    -0.06140
C1037       C  0.44204268  0.31082880  0.91098211    -0.17380
C1038       C  0.44335534  0.26707467  0.90629018     0.11010
S1039       S  0.52279261  0.34851968  0.81874318    -0.32350
S1040       S  0.40893971  0.23537658  0.93732749    -0.32350
H1041       H  0.39832775  0.26678433  0.96648090     0.29020
H1042       H  0.48962239  0.37540733  0.80777136     0.29010
H1043       H  0.51544319  0.26146507  0.82838633     0.19610
H1044       H  0.42105849  0.32484154  0.93359080     0.19610
C1045       C  0.45701432  0.12303279  0.67554775    -0.06220
C1046       C  0.43771596  0.09592460  0.70386375    -0.17350
C1047       C  0.43716325  0.10453457  0.74680529     0.10980
C1048       C  0.45858777  0.14006936  0.76273490    -0.06140
C1049       C  0.47750532  0.16709902  0.73396574    -0.17380
C1050       C  0.47669409  0.15933780  0.69102114     0.11010
S1051       S  0.40470481  0.07132036  0.77819783    -0.32350
S1052       S  0.49888661  0.19853497  0.65756558    -0.32350
H1053       H  0.46648150  0.19757587  0.62784608     0.29020
H1054       H  0.39129038  0.10360290  0.80513926     0.29010
H1055       H  0.42075991  0.06898587  0.69206219     0.19610
H1056       H  0.49217588  0.19554284  0.74481408     0.19610
C1057       C  0.15284248  0.24218505  0.57312792    -0.06220
C1058       C  0.12436393  0.26175661  0.54591726    -0.17350
C1059       C  0.11764582  0.30521846  0.54763264     0.10980
C1060       C  0.14175028  0.32997161  0.57522566    -0.06140
C1061       C  0.16961672  0.31000262  0.60271210    -0.17380
C1062       C  0.17373200  0.26667045  0.60344465     0.11010
S1063       S  0.07717853  0.32678233  0.51506467    -0.32350
S1064       S  0.20511052  0.24463725  0.64486313    -0.32350
H1065       H  0.18369229  0.20630624  0.64636102     0.29020
H1066       H  0.06657232  0.36027322  0.54166153     0.29010
H1067       H  0.10756511  0.24319183  0.52299563     0.19610
H1068       H  0.18771422  0.32834061  0.62481675     0.19610
C1069       C  0.26588165  0.13670188  0.55310464    -0.06220
C1070       C  0.27935789  0.10089536  0.57471752    -0.17350
C1071       C  0.32174140  0.09166691  0.57989903     0.10980
C1072       C  0.35206624  0.11874613  0.56320604    -0.06140
C1073       C  0.33901324  0.15367259  0.54034465    -0.17380
C1074       C  0.29659199  0.16318897  0.53513737     0.11010
S1075       S  0.33502599  0.04596963  0.61008979    -0.32350
S1076       S  0.28481562  0.20850772  0.50345365    -0.32350
H1077       H  0.24586460  0.19451274  0.48870306     0.29020
H1078       H  0.37371046  0.03843029  0.59076212     0.29010
H1079       H  0.25674453  0.08061063  0.58927010     0.19610
H1080       H  0.36217065  0.17464419  0.52765341     0.19610
C1081       C  0.26941741  0.46105108  0.86361796    -0.06220
C1082       C  0.29544005  0.49201627  0.88030877    -0.17350
C1083       C  0.33882924  0.48567800  0.88272894     0.10980
C1084       C  0.35699681  0.44869232  0.86517674    -0.06140
C1085       C  0.33037018  0.41925697  0.84622354    -0.17380
C1086       C  0.28720282  0.42381302  0.84749533     0.11010
S1087       S  0.36761863  0.52378633  0.91268411    -0.32350
S1088       S  0.25639674  0.38030013  0.82864370    -0.32350
H1089       H  0.22293988  0.38634347  0.85628453     0.29020
H1090       H  0.39322986  0.49476693  0.93352065     0.29010
H1091       H  0.28177552  0.52069792  0.89254893     0.19610
H1092       H  0.34307646  0.39122455  0.83176016     0.19610
C1093       C  0.16203721  0.45737233  0.75638584    -0.06220
C1094       C  0.12010949  0.45335873  0.74305513    -0.17350
C1095       C  0.11008365  0.44433287  0.70156979     0.10980
C1096       C  0.14056021  0.44929284  0.67054259    -0.06140
C1097       C  0.18188369  0.45574569  0.68273732    -0.17380
C1098       C  0.19350368  0.45412122  0.72478378     0.11010
S1099       S  0.06098855  0.41854938  0.69233730    -0.32350
S1100       S  0.24629307  0.43554151  0.73436453    -0.32350
H1101       H  0.26382996  0.44824065  0.69638587     0.29020
H1102       H  0.05893787  0.42330799  0.64897908     0.29010
H1103       H  0.09456639  0.45354691  0.76477585     0.19610
H1104       H  0.20578372  0.45460189  0.65892155     0.19610
C1105       C  0.95951516  0.45493021  0.75759755    -0.06220
C1106       C  0.98080264  0.48437063  0.73356336    -0.17350
C1107       C  0.98340887  0.48015708  0.68992166     0.10980
C1108       C  0.96384384  0.44562529  0.66941530    -0.06140
C1109       C  0.94118055  0.41741384  0.69396964    -0.17380
C1110       C  0.94026015  0.42063361  0.73730498     0.11010
S1111       S  0.01496023  0.51830045  0.66371237    -0.32350
S1112       S  0.91507405  0.37872706  0.76497032    -0.32350
H1113       H  0.94045520  0.38112202  0.80078167     0.29020
H1114       H  0.03395396  0.49046746  0.63546263     0.29010
H1115       H  0.99539385  0.51092890  0.74890137     0.19610
H1116       H  0.92493695  0.39142336  0.67943248     0.19610
C1117       C  0.85574611  0.45526408  0.86855092    -0.06220
C1118       C  0.83234407  0.43192448  0.83955058    -0.17350
C1119       C  0.78945144  0.42802323  0.84259172     0.10980
C1120       C  0.76851605  0.44368517  0.87797963    -0.06140
C1121       C  0.79146351  0.46587568  0.90830123    -0.17380
C1122       C  0.83475007  0.47235546  0.90379551     0.11010
S1123       S  0.76334872  0.40470159  0.79850449    -0.32350
S1124       S  0.86054381  0.50232467  0.94405400    -0.32350
H1125       H  0.88982205  0.52096216  0.91754228     0.29020
H1126       H  0.72696026  0.42935233  0.80206960     0.29010
H1127       H  0.84736965  0.41738916  0.81295612     0.19610
H1128       H  0.77565984  0.47786731  0.93575176     0.19610
C1129       C  0.96997359  0.24754426  0.54624693    -0.06220
C1130       C  0.94953610  0.27635057  0.52020343    -0.17350
C1131       C  0.95308531  0.31955326  0.52652495     0.10980
C1132       C  0.97934629  0.33509436  0.55875105    -0.06140
C1133       C  0.00217568  0.30622669  0.58284537    -0.17380
C1134       C  0.99732002  0.26295623  0.57752065     0.11010
S1135       S  0.91967877  0.35230382  0.49502052    -0.32350
S1136       S  0.02415598  0.22967643  0.61417682    -0.32350
H1137       H  0.98936614  0.20418108  0.62192737     0.29020
H1138       H  0.90685270  0.37811874  0.52836387     0.29010
H1139       H  0.92848317  0.26497183  0.49614795     0.19610
H1140       H  0.02287796  0.31751672  0.60722755     0.19610
C1141       C  0.85466399  0.14533404  0.56081693    -0.06220
C1142       C  0.83445691  0.11249283  0.53948920    -0.17350
C1143       C  0.79156318  0.10511465  0.54464777     0.10980
C1144       C  0.76720250  0.13254031  0.56944387    -0.06140
C1145       C  0.78730551  0.16553445  0.59043511    -0.17380
C1146       C  0.83052257  0.17121239  0.58782350     0.11010
S1147       S  0.77038250  0.05859659  0.52125077    -0.32350
S1148       S  0.85282914  0.20997646  0.62251256    -0.32350
H1149       H  0.89035234  0.18791454  0.62945809     0.29020
H1150       H  0.74375079  0.04885159  0.55453961     0.29010
H1151       H  0.85231956  0.09190240  0.51922131     0.19610
H1152       H  0.76933546  0.18610742  0.61064482     0.19610
C1153       C  0.65488956  0.24747846  0.86452752    -0.06220
C1154       C  0.66989521  0.27365411  0.83272031    -0.17350
C1155       C  0.66873453  0.31712763  0.83625240     0.10980
C1156       C  0.65903832  0.33606049  0.87474908    -0.06140
C1157       C  0.64541348  0.31084809  0.90741407    -0.17380
C1158       C  0.64125040  0.26730810  0.90207967     0.11010
S1159       S  0.67777816  0.34658264  0.78953538    -0.32350
S1160       S  0.61644201  0.24021944  0.94381441    -0.32350
H1161       H  0.59088694  0.21607686  0.91722959     0.29020
H1162       H  0.65466316  0.38216622  0.80166171     0.29010
H1163       H  0.68203440  0.26074729  0.80397398     0.19610
H1164       H  0.63739553  0.32525901  0.93705077     0.19610
C1165       C  0.63845705  0.13145459  0.75950026    -0.06220
C1166       C  0.66674382  0.10007958  0.74695582    -0.17350
C1167       C  0.67484924  0.09230071  0.70480272     0.10980
C1168       C  0.65414824  0.11633717  0.67397017    -0.06140
C1169       C  0.62343423  0.14524171  0.68639290    -0.17380
C1170       C  0.61539576  0.15299828  0.72853082     0.11010
S1171       S  0.71307532  0.05234438  0.69288668    -0.32350
S1172       S  0.57690194  0.19241921  0.74049704    -0.32350
H1173       H  0.56439248  0.17438492  0.77833449     0.29020
H1174       H  0.69860878  0.04459955  0.65228516     0.29010
H1175       H  0.68459686  0.08307922  0.77017154     0.19610
H1176       H  0.60708276  0.16364239  0.66313515     0.19610
loop_ 
_geom_bond_atom_site_label_1 
_geom_bond_atom_site_label_2 
_geom_bond_distance 
_geom_bond_site_symmetry_2 
_ccdc_geom_bond_type 
C1            C2   1.401       .  A
C1            C6   1.399       .  A
C1         C1165   1.489       .  S
C2            C3   1.411       .  A
C2            H7   1.076       .  S
C3            C4   1.413       .  A
C3         C1153   1.512       .  S
C4            C5   1.405       .  A
C4            H8   1.080       .  S
C5            C6   1.399       .  A
C5          C583   1.465       .  S
C6            H9   1.084       .  S
C10          C11   1.402       .  A
C10          C15   1.411       .  A
C10        C1141   1.497       .  S
C11          C12   1.403       .  A
C11          H16   1.083       .  S
C12          C13   1.404       .  A
C12        C1129   1.488       .  S
C13          C14   1.404       .  A
C13          H17   1.084   1_655  S
C14          C15   1.409       .  A
C14         C541   1.474   1_655  S
C15          H18   1.084       .  S
C19          C20   1.404       .  A
C19          C24   1.396       .  A
C19        C1105   1.485       .  S
C20          C21   1.409       .  A
C20          H25   1.084   1_655  S
C21          C22   1.407       .  A
C21         C570   1.468   1_655  S
C22          C23   1.406       .  A
C22          H26   1.082       .  S
C23          C24   1.406       .  A
C23        C1117   1.496       .  S
C24          H27   1.084       .  S
C28          C29   1.398       .  A
C28          C33   1.404       .  A
C28        C1156   1.479       .  S
C29          C30   1.402       .  A
C29          H34   1.085       .  S
C30          C31   1.403       .  A
C30        C1120   1.482       .  S
C31          C32   1.407       .  A
C31          H35   1.084       .  S
C32          C33   1.408       .  A
C32         C515   1.469       .  S
C33          H36   1.084       .  S
C37          C38   1.405       .  A
C37          C42   1.401       .  A
C37        C1132   1.492       .  S
C38          C39   1.412       .  A
C38          H43   1.082       .  S
C39          C40   1.407       .  A
C39        C1108   1.503       .  S
C40          C41   1.405       .  A
C40          H44   1.082       .  S
C41          C42   1.399       .  A
C41         C486   1.463       .  S
C42          H45   1.084       .  S
C46          C47   1.402       .  A
C46          C51   1.412       .  A
C46        C1144   1.492       .  S
C47          C48   1.401       .  A
C47          H52   1.084       .  S
C48          C49   1.403       .  A
C48        C1168   1.484       .  S
C49          C50   1.402       .  A
C49          H53   1.084       .  S
C50          C51   1.410       .  A
C50         C472   1.473       .  S
C51          H54   1.084       .  S
C55          C56   1.391       .  A
C55          C60   1.397       .  A
C55        C1081   1.471       .  S
C56          C57   1.401       .  A
C56          H61   1.067       .  S
C57          C58   1.421       .  A
C57        C1093   1.517       .  S
C58          C59   1.407       .  A
C58          H62   1.077       .  S
C59          C60   1.401       .  A
C59         C571   1.467       .  S
C60          H63   1.084       .  S
C64          C65   1.398       .  A
C64          C69   1.412       .  A
C64        C1069   1.493       .  S
C65          C66   1.399       .  A
C65          H70   1.081       .  S
C66          C67   1.402       .  A
C66        C1057   1.480       .  S
C67          C68   1.404       .  A
C67          H71   1.084       .  S
C68          C69   1.406       .  A
C68         C543   1.470       .  S
C69          H72   1.084       .  S
C73          C74   1.409       .  A
C73          C78   1.409       .  A
C73        C1048   1.503       .  S
C74          C75   1.405       .  A
C74          H79   1.082       .  S
C75          C76   1.397       .  A
C75         C555   1.463       .  S
C76          C77   1.399       .  A
C76          H80   1.082       .  S
C77          C78   1.406       .  A
C77        C1033   1.485       .  S
C78          H81   1.083       .  S
C82          C83   1.402       .  A
C82          C87   1.401       .  A
C82        C1036   1.486       .  S
C83          C84   1.411       .  A
C83          H88   1.082       .  S
C84          C85   1.402       .  A
C84        C1084   1.495       .  S
C85          C86   1.399       .  A
C85          H89   1.083       .  S
C86          C87   1.401       .  A
C86         C514   1.456       .  S
C87          H90   1.084       .  S
C91          C92   1.396       .  A
C91          C96   1.404       .  A
C91        C1072   1.479       .  S
C92          C93   1.396       .  A
C92          H97   1.085       .  S
C93          C94   1.410       .  A
C93        C1045   1.483       .  S
C94          C95   1.410       .  A
C94          H98   1.084       .  S
C95          C96   1.406       .  A
C95         C473   1.474       .  S
C96          H99   1.084       .  S
C100        C101   1.396       .  A
C100        C105   1.411       .  A
C100       C1060   1.483       .  S
C101        C102   1.390       .  A
C101        H106   1.085       .  S
C102        C103   1.400       .  A
C102       C1096   1.471       .  S
C103        C104   1.405       .  A
C103        H107   1.082       .  S
C104        C105   1.409       .  A
C104        C460   1.471       .  S
C105        H108   1.083       .  S
C109        C110   1.410       .  A
C109        C114   1.415       .  A
C109       C1021   1.512       .  S
C110        C111   1.396       .  A
C110        H115   1.083       .  S
C111        C112   1.393       .  A
C111       C1012   1.475       .  S
C112        C113   1.397       .  A
C112        H116   1.084       .  S
C113        C114   1.411       .  A
C113        C557   1.460       .  S
C114        H117   1.080       .  S
C118        C119   1.408       .  A
C118        C123   1.408       .  A
C118        C985   1.502       .  S
C119        C120   1.399       .  A
C119        H124   1.084       .  S
C120        C121   1.408       .  A
C120        C997   1.493       .  S
C121        C122   1.412       .  A
C121        H125   1.084       .  S
C122        C123   1.406       .  A
C122        C542   1.475       .  S
C123        H126   1.081       .  S
C127        C128   1.395       .  A
C127        C132   1.403       .  A
C127        C964   1.489       .  S
C128        C129   1.399       .  A
C128        H133   1.075       .  S
C129        C130   1.415       .  A
C129        C973   1.501       .  S
C130        C131   1.411       .  A
C130        H134   1.082       .  S
C131        C132   1.406       .  A
C131        C599   1.476       .  S
C132        H135   1.084       .  S
C136        C137   1.412       .  A
C136        C141   1.388       .  A
C136        C961   1.480       .  S
C137        C138   1.414       .  A
C137        H142   1.082       .  S
C138        C139   1.406       .  A
C138        C516   1.476       .  S
C139        C140   1.403       .  A
C139        H143   1.084       .  S
C140        C141   1.391       .  A
C140       C1009   1.471       .  S
C141        H144   1.086       .  S
C145        C146   1.407       .  A
C145        C150   1.390       .  A
C145        C976   1.475       .  S
C146        C147   1.415       .  A
C146        H151   1.083       .  S
C147        C148   1.414       .  A
C147       C1000   1.507       .  S
C148        C149   1.404       .  A
C148        H152   1.081       .  S
C149        C150   1.393       .  A
C149        C457   1.460       .  S
C150        H153   1.082       .  S
C154        C155   1.405       .  A
C154        C159   1.404       .  A
C154        C988   1.484       .  S
C155        C156   1.403       .  A
C155        H160   1.084       .  S
C156        C157   1.401       .  A
C156       C1024   1.480       .  S
C157        C158   1.405       .  A
C157        H161   1.084       .  S
C158        C159   1.405       .  A
C158        C499   1.466       .  S
C159        H162   1.084       .  S
C163        C164   1.386       .  A
C163        C168   1.398       .  A
C163        C949   1.461       .  S
C164        C165   1.395       .  A
C164        H169   1.085       .  S
C165        C166   1.407       .  A
C165        C937   1.481       .  S
C166        C167   1.405       .  A
C166        H170   1.083   1_655  S
C167        C168   1.403       .  A
C167        C544   1.460   1_655  S
C168        H171   1.084       .  S
C172        C173   1.402       .  A
C172        C177   1.399       .  A
C172        C913   1.477       .  S
C173        C174   1.406       .  A
C173        H178   1.084       .  S
C174        C175   1.402       .  A
C174        C925   1.488       .  S
C175        C176   1.397       .  A
C175        H179   1.082       .  S
C176        C177   1.401       .  A
C176        C586   1.454       .  S
C177        H180   1.084       .  S
C181        C182   1.399       .  A
C181        C186   1.406       .  A
C181        C901   1.485       .  S
C182        C183   1.402       .  A
C182        H187   1.084       .  S
C183        C184   1.406       .  A
C183        C889   1.485       .  S
C184        C185   1.407       .  A
C184        H188   1.084       .  S
C185        C186   1.405       .  A
C185        C598   1.471   1_655  S
C186        H189   1.084   1_655  S
C190        C191   1.395       .  A
C190        C195   1.412       .  A
C190        C904   1.490       .  S
C191        C192   1.396       .  A
C191        H196   1.083       .  S
C192        C193   1.400       .  A
C192        C940   1.473       .  S
C193        C194   1.400       .  A
C193        H197   1.084       .  S
C194        C195   1.410       .  A
C194        C488   1.469       .  S
C195        H198   1.083       .  S
C199        C200   1.404       .  A
C199        C204   1.410       .  A
C199        C892   1.493       .  S
C200        C201   1.396       .  A
C200        H205   1.084       .  S
C201        C202   1.397       .  A
C201        C928   1.473       .  S
C202        C203   1.401       .  A
C202        H206   1.084       .  S
C203        C204   1.408       .  A
C203        C513   1.464       .  S
C204        H207   1.083       .  S
C208        C209   1.405       .  A
C208        C213   1.409       .  A
C208        C952   1.506       .  S
C209        C210   1.401       .  A
C209        H214   1.082       .  S
C210        C211   1.402       .  A
C210        C916   1.488       .  S
C211        C212   1.402       .  A
C211        H215   1.082       .  S
C212        C213   1.400       .  A
C212        C502   1.464       .  S
C213        H216   1.075       .  S
C217        C218   1.396       .  A
C217        C222   1.407       .  A
C217        C865   1.476       .  S
C218        C219   1.397       .  A
C218        H223   1.085       .  S
C219        C220   1.404       .  A
C219        C880   1.477       .  S
C220        C221   1.405       .  A
C220        H224   1.084       .  S
C221        C222   1.407       .  A
C221        C597   1.471       .  S
C222        H225   1.084       .  S
C226        C227   1.399       .  A
C226        C231   1.397       .  A
C226        C841   1.475       .  S
C227        C228   1.401       .  A
C227        H232   1.085       .  S
C228        C229   1.414       .  A
C228        C853   1.497       .  S
C229        C230   1.412       .  A
C229        H233   1.083       .  S
C230        C231   1.402       .  A
C230        C530   1.471       .  S
C231        H234   1.083       .  S
C235        C236   1.396       .  A
C235        C240   1.402       .  A
C235        C820   1.475       .  S
C236        C237   1.402       .  A
C236        H241   1.085       .  S
C237        C238   1.404       .  A
C237        C829   1.482       .  S
C238        C239   1.405       .  A
C238        H242   1.084       .  S
C239        C240   1.404       .  A
C239        C556   1.465       .  S
C240        H243   1.084       .  S
C244        C245   1.415       .  A
C244        C249   1.410       .  A
C244        C868   1.508       .  S
C245        C246   1.405       .  A
C245        H250   1.082       .  S
C246        C247   1.397       .  A
C246        C832   1.487       .  S
C247        C248   1.396       .  A
C247        H251   1.084       .  S
C248        C249   1.406       .  A
C248        C446   1.463       .  S
C249        H252   1.081       .  S
C253        C254   1.398       .  A
C253        C258   1.409       .  A
C253        C817   1.498       .  S
C254        C255   1.403       .  A
C254        H259   1.083       .  S
C255        C256   1.406       .  A
C255        C844   1.495       .  S
C256        C257   1.404       .  A
C256        H260   1.081       .  S
C257        C258   1.404       .  A
C257        C501   1.466       .  S
C258        H261   1.081       .  S
C262        C263   1.407       .  A
C262        C267   1.402       .  A
C262        C877   1.495       .  S
C263        C264   1.405       .  A
C263        H268   1.082       .  S
C264        C265   1.411       .  A
C264        C856   1.497       .  S
C265        C266   1.410       .  A
C265        H269   1.084       .  S
C266        C267   1.400       .  A
C266        C459   1.471       .  S
C267        H270   1.083       .  S
C271        C272   1.406       .  A
C271        C276   1.405       .  A
C271        C796   1.495       .  S
C272        C273   1.399       .  A
C272        H277   1.084       .  S
C273        C274   1.405       .  A
C273        C805   1.482       .  S
C274        C275   1.406       .  A
C274        H278   1.083       .  S
C275        C276   1.401       .  A
C275        C584   1.467       .  S
C276        H279   1.082       .  S
C280        C281   1.408       .  A
C280        C285   1.400       .  A
C280        C769   1.487       .  S
C281        C282   1.408       .  A
C281        H286   1.083       .  S
C282        C283   1.409       .  A
C282        C784   1.499       .  S
C283        C284   1.406       .  A
C283        H287   1.084   1_655  S
C284        C285   1.402       .  A
C284        C527   1.467   1_655  S
C285        H288   1.084       .  S
C289        C290   1.401       .  A
C289        C294   1.406       .  A
C289        C748   1.488       .  S
C290        C291   1.407       .  A
C290        H295   1.084       .  S
C291        C292   1.406       .  A
C291        C757   1.492       .  S
C292        C293   1.405       .  A
C292        H296   1.083       .  S
C293        C294   1.406       .  A
C293        C600   1.470   1_655  S
C294        H297   1.084   1_655  S
C298        C299   1.401       .  A
C298        C303   1.404       .  A
C298        C760   1.483       .  S
C299        C300   1.406       .  A
C299        H304   1.083       .  S
C300        C301   1.409       .  A
C300        C808   1.495       .  S
C301        C302   1.402       .  A
C301        H305   1.083       .  S
C302        C303   1.401       .  A
C302        C443   1.468       .  S
C303        H306   1.084       .  S
C307        C308   1.399       .  A
C307        C312   1.409       .  A
C307        C745   1.493       .  S
C308        C309   1.403       .  A
C308        H313   1.084       .  S
C309        C310   1.406       .  A
C309        C781   1.490       .  S
C310        C311   1.405       .  A
C310        H314   1.083       .  S
C311        C312   1.408       .  A
C311        C485   1.472       .  S
C312        H315   1.084       .  S
C316        C317   1.404       .  A
C316        C321   1.392       .  A
C316        C793   1.471       .  S
C317        C318   1.403       .  A
C317        H322   1.081       .  S
C318        C319   1.409       .  A
C318        C500   1.478       .  S
C319        C320   1.413       .  A
C319        H323   1.074       .  S
C320        C321   1.400       .  A
C320        C772   1.493       .  S
C321        H324   1.085       .  S
C325        C326   1.405       .  A
C325        C330   1.406       .  A
C325        C733   1.494       .  S
C326        C327   1.408       .  A
C326        H331   1.083       .  S
C327        C328   1.405       .  A
C327        C721   1.495       .  S
C328        C329   1.402       .  A
C328        H332   1.083   1_655  S
C329        C330   1.402       .  A
C329        C572   1.466   1_655  S
C330        H333   1.084       .  S
C334        C335   1.400       .  A
C334        C339   1.404       .  A
C334        C709   1.486       .  S
C335        C336   1.401       .  A
C335        H340   1.084       .  S
C336        C337   1.406       .  A
C336        C697   1.487       .  S
C337        C338   1.406       .  A
C337        H341   1.084   1_655  S
C338        C339   1.405       .  A
C338        C529   1.467   1_655  S
C339        H342   1.083       .  S
C343        C344   1.406       .  A
C343        C348   1.404       .  A
C343        C676   1.486       .  S
C344        C345   1.405       .  A
C344        H349   1.084       .  S
C345        C346   1.400       .  A
C345        C685   1.482       .  S
C346        C347   1.397       .  A
C346        H350   1.083       .  S
C347        C348   1.400       .  A
C347        C585   1.458       .  S
C348        H351   1.082       .  S
C352        C353   1.405       .  A
C352        C357   1.403       .  A
C352        C688   1.487       .  S
C353        C354   1.401       .  A
C353        H358   1.084       .  S
C354        C355   1.405       .  A
C354        C736   1.485       .  S
C355        C356   1.405       .  A
C355        H359   1.084       .  S
C356        C357   1.401       .  A
C356        C445   1.463       .  S
C357        H360   1.083       .  S
C361        C362   1.403       .  A
C361        C366   1.405       .  A
C361        C673   1.487       .  S
C362        C363   1.403       .  A
C362        H367   1.084       .  S
C363        C364   1.405       .  A
C363        C712   1.490       .  S
C364        C365   1.400       .  A
C364        H368   1.083       .  S
C365        C366   1.403       .  A
C365        C474   1.465       .  S
C366        H369   1.082       .  S
C370        C371   1.402       .  A
C370        C375   1.406       .  A
C370        C700   1.487       .  S
C371        C372   1.398       .  A
C371        H376   1.084       .  S
C372        C373   1.405       .  A
C372        C724   1.482       .  S
C373        C374   1.405       .  A
C373        H377   1.084       .  S
C374        C375   1.407       .  A
C374        C487   1.470       .  S
C375        H378   1.084       .  S
C379        C380   1.411       .  A
C379        C384   1.415       .  A
C379        C661   1.517       .  S
C380        C381   1.416       .  A
C380        H385   1.080       .  S
C381        C382   1.404       .  A
C381        C649   1.505       .  S
C382        C383   1.398       .  A
C382        H386   1.080       .  S
C383        C384   1.401       .  A
C383        C569   1.467       .  S
C384        H387   1.080       .  S
C388        C389   1.397       .  A
C388        C393   1.407       .  A
C388        C637   1.484       .  S
C389        C390   1.402       .  A
C389        H394   1.084       .  S
C390        C391   1.403       .  A
C390        C628   1.489       .  S
C391        C392   1.401       .  A
C391        H395   1.082       .  S
C392        C393   1.408       .  A
C392        C558   1.467       .  S
C393        H396   1.084       .  S
C397        C398   1.407       .  A
C397        C402   1.396       .  A
C397        C601   1.478       .  S
C398        C399   1.410       .  A
C398        H403   1.083       .  S
C399        C400   1.414       .  A
C399        C613   1.503       .  S
C400        C401   1.409       .  A
C400        H404   1.084       .  S
C401        C402   1.398       .  A
C401        C528   1.470       .  S
C402        H405   1.084       .  S
C406        C407   1.402       .  A
C406        C411   1.402       .  A
C406        C640   1.495       .  S
C407        C408   1.404       .  A
C407        H412   1.078       .  S
C408        C409   1.415       .  A
C408        C604   1.506       .  S
C409        C410   1.407       .  A
C409        H413   1.082       .  S
C410        C411   1.404       .  A
C410        C471   1.473       .  S
C411        H414   1.083       .  S
C415        C416   1.405       .  A
C415        C420   1.415       .  A
C415        C616   1.504       .  S
C416        C417   1.405       .  A
C416        H421   1.084       .  S
C417        C418   1.396       .  A
C417        C652   1.475       .  S
C418        C419   1.399       .  A
C418        H422   1.085       .  S
C419        C420   1.411       .  A
C419        C458   1.469       .  S
C420        H423   1.083       .  S
C424        C425   1.399       .  A
C424        C429   1.401       .  A
C424        C625   1.466       .  S
C425        C426   1.394       .  A
C425        H430   1.085       .  S
C426        C427   1.406       .  A
C426        C664   1.478       .  S
C427        C428   1.404       .  A
C427        H431   1.077       .  S
C428        C429   1.399       .  A
C428        C444   1.466       .  S
C429        H432   1.084       .  S
O433        V441   1.907       .  S
O433        C443   1.265       .  A
O434        V441   1.902       .  S
O434        C444   1.264       .  A
O435        V441   1.898       .  S
O435        C445   1.263       .  A
O436        V441   1.898       .  S
O436        C446   1.262       .  A
O437        V442   1.898       .  S
O437        C446   1.264       .  A
O438        V442   1.900       .  S
O438        C445   1.262       .  A
O439        V442   1.900       .  S
O439        C444   1.263       .  A
O440        V442   1.898       .  S
O440        C443   1.263       .  A
V441        V442   2.086       .  T
O447        V455   1.894       .  S
O447        C457   1.261       .  A
O448        V455   1.899       .  S
O448        C458   1.263       .  A
O449        V455   1.912       .  S
O449        C459   1.267       .  A
O450        V455   1.911       .  S
O450        C460   1.266       .  A
O451        V456   1.899       .  S
O451        C460   1.262       .  A
O452        V456   1.898       .  S
O452        C459   1.261       .  A
O453        V456   1.907       .  S
O453        C458   1.265       .  A
O454        V456   1.901       .  S
O454        C457   1.264       .  A
V455        V456   2.089       .  T
O461        V469   1.910       .  S
O461        C471   1.265       .  A
O462        V469   1.909       .  S
O462        C472   1.265       .  A
O463        V469   1.906       .  S
O463        C473   1.264       .  A
O464        V469   1.904       .  S
O464        C474   1.263       .  A
O465        V470   1.898       .  S
O465        C474   1.263       .  A
O466        V470   1.907       .  S
O466        C473   1.265       .  A
O467        V470   1.903       .  S
O467        C472   1.264       .  A
O468        V470   1.900       .  S
O468        C471   1.264       .  A
V469        V470   2.088       .  T
O475        V483   1.907       .  S
O475        C485   1.265   1_455  A
O476        V483   1.900       .  S
O476        C486   1.264   1_455  A
O477        V483   1.904       .  S
O477        C487   1.263   1_455  A
O478        V483   1.907       .  S
O478        C488   1.264   1_455  A
O479        V484   1.900       .  S
O479        C488   1.264       .  A
O480        V484   1.904       .  S
O480        C487   1.264       .  A
O481        V484   1.898       .  S
O481        C486   1.263       .  A
O482        V484   1.904       .  S
O482        C485   1.264       .  A
V483        V484   2.087   1_455  T
O489        V497   1.882       .  S
O489        C499   1.256       .  A
O490        V497   1.894       .  S
O490        C500   1.259       .  A
O491        V497   1.905       .  S
O491        C501   1.266       .  A
O492        V497   1.903       .  S
O492        C502   1.266       .  A
O493        V498   1.895       .  S
O493        C502   1.260       .  A
O494        V498   1.896       .  S
O494        C501   1.260       .  A
O495        V498   1.924       .  S
O495        C500   1.271       .  A
O496        V498   1.920       .  S
O496        C499   1.270       .  A
V497        V498   2.089       .  T
O503        V511   1.899       .  S
O503        C513   1.263       .  A
O504        V511   1.893       .  S
O504        C514   1.261       .  A
O505        V511   1.901       .  S
O505        C515   1.262       .  A
O506        V511   1.907       .  S
O506        C516   1.265       .  A
O507        V512   1.909       .  S
O507        C516   1.266       .  A
O508        V512   1.906       .  S
O508        C515   1.265       .  A
O509        V512   1.896       .  S
O509        C514   1.262       .  A
O510        V512   1.900       .  S
O510        C513   1.263       .  A
V511        V512   2.088       .  T
O517        V525   1.909   1_565  S
O517        C527   1.265       .  A
O518        V525   1.909       .  S
O518        C528   1.266       .  A
O519        V525   1.899       .  S
O519        C529   1.262       .  A
O520        V525   1.900   1_565  S
O520        C530   1.263       .  A
O521        V526   1.910   1_565  S
O521        C530   1.266       .  A
O522        V526   1.905       .  S
O522        C529   1.265       .  A
O523        V526   1.898       .  S
O523        C528   1.262       .  A
O524        V526   1.895   1_565  S
O524        C527   1.262       .  A
V525        V526   2.090       .  T
O531        V539   1.906       .  S
O531        C541   1.265       .  A
O532        V539   1.910   1_565  S
O532        C542   1.265       .  A
O533        V539   1.904       .  S
O533        C543   1.265       .  A
O534        V539   1.899   1_565  S
O534        C544   1.263       .  A
O535        V540   1.897   1_565  S
O535        C544   1.263       .  A
O536        V540   1.903       .  S
O536        C543   1.263       .  A
O537        V540   1.905   1_565  S
O537        C542   1.265       .  A
O538        V540   1.907       .  S
O538        C541   1.265       .  A
V539        V540   2.088       .  T
O545        V553   1.900       .  S
O545        C555   1.263       .  A
O546        V553   1.901   1_564  S
O546        C556   1.262       .  A
O547        V553   1.894       .  S
O547        C557   1.263   1_545  A
O548        V553   1.899   1_554  S
O548        C558   1.263       .  A
O549        V554   1.905   1_554  S
O549        C558   1.264       .  A
O550        V554   1.902   1_565  S
O550        C557   1.263       .  A
O551        V554   1.901   1_564  S
O551        C556   1.264       .  A
O552        V554   1.898       .  S
O552        C555   1.264       .  A
V553        V554   2.089       .  T
O559        V567   1.910   1_554  S
O559        C569   1.265       .  A
O560        V567   1.908       .  S
O560        C570   1.265       .  A
O561        V567   1.907       .  S
O561        C571   1.265       .  A
O562        V567   1.905   1_554  S
O562        C572   1.266       .  A
O563        V568   1.898   1_554  S
O563        C572   1.261       .  A
O564        V568   1.896       .  S
O564        C571   1.262       .  A
O565        V568   1.899       .  S
O565        C570   1.263       .  A
O566        V568   1.893   1_554  S
O566        C569   1.261       .  A
V567        V568   2.086       .  T
O573        V581   1.898       .  S
O573        C583   1.264       .  A
O574        V581   1.902   1_564  S
O574        C584   1.264       .  A
O575        V581   1.893   1_554  S
O575        C585   1.260       .  A
O576        V581   1.885   1_565  S
O576        C586   1.260       .  A
O577        V582   1.901   1_565  S
O577        C586   1.263       .  A
O578        V582   1.898   1_554  S
O578        C585   1.264       .  A
O579        V582   1.902   1_564  S
O579        C584   1.263       .  A
O580        V582   1.902       .  S
O580        C583   1.263       .  A
V581        V582   2.091       .  T
O587        V595   1.905       .  S
O587        C597   1.263   1_556  A
O588        V595   1.901       .  S
O588        C598   1.262       .  A
O589        V595   1.910       .  S
O589        C599   1.264       .  A
O590        V595   1.908   1_554  S
O590        C600   1.264       .  A
O591        V596   1.900   1_554  S
O591        C600   1.263       .  A
O592        V596   1.901       .  S
O592        C599   1.264       .  A
O593        V596   1.909       .  S
O593        C598   1.266       .  A
O594        V596   1.904   1_554  S
O594        C597   1.264       .  A
V595        V596   2.088       .  T
C601        C602   1.396       .  A
C601        C606   1.400       .  A
C602        C603   1.401       .  A
C602        H611   1.084       .  S
C603        C604   1.428       .  A
C603        S607   1.805       .  S
C604        C605   1.409       .  A
C605        C606   1.399       .  A
C605        H612   1.081       .  S
C606        S608   1.787       .  S
S607        H610   1.403       .  S
S608        H609   1.405       .  S
C613        C614   1.406       .  A
C613        C618   1.421       .  A
C614        C615   1.406       .  A
C614        H623   1.084       .  S
C615        C616   1.412       .  A
C615        S619   1.788       .  S
C616        C617   1.407       .  A
C617        C618   1.406       .  A
C617        H624   1.083       .  S
C618        S620   1.804       .  S
S619        H622   1.407       .  S
S620        H621   1.407       .  S
C625        C626   1.400       .  A
C625        C630   1.408       .  A
C626        C627   1.405       .  A
C626        H635   1.083   1_554  S
C627        C628   1.415       .  A
C627        S631   1.796   1_554  S
C628        C629   1.404       .  A
C629        C630   1.385       .  A
C629        H636   1.079       .  S
C630        S632   1.808       .  S
S631        H634   1.407       .  S
S632        H633   1.407       .  S
C637        C638   1.401       .  A
C637        C642   1.415       .  A
C638        C639   1.408       .  A
C638        H647   1.083       .  S
C639        C640   1.417       .  A
C639        S643   1.797       .  S
C640        C641   1.403       .  A
C641        C642   1.395       .  A
C641        H648   1.082       .  S
C642        S644   1.809       .  S
S643        H646   1.399       .  S
S644        H645   1.407       .  S
C649        C650   1.405       .  A
C649        C654   1.424       .  A
C650        C651   1.383       .  A
C650        H659   1.066       .  S
C651        C652   1.403       .  A
C651        S655   1.808       .  S
C652        C653   1.405       .  A
C653        C654   1.415       .  A
C653        H660   1.082       .  S
C654        S656   1.808       .  S
S655        H658   1.406       .  S
S656        H657   1.407       .  S
C661        C662   1.412       .  A
C661        C666   1.429       .  A
C662        C663   1.401       .  A
C662        H671   1.079   1_554  S
C663        C664   1.407       .  A
C663        S667   1.793   1_554  S
C664        C665   1.395       .  A
C665        C666   1.398       .  A
C665        H672   1.085       .  S
C666        S668   1.795       .  S
S667        H670   1.401       .  S
S668        H669   1.408       .  S
C673        C674   1.406       .  A
C673        C678   1.415       .  A
C674        C675   1.397       .  A
C674        H683   1.084       .  S
C675        C676   1.416       .  A
C675        S679   1.804       .  S
C676        C677   1.406       .  A
C677        C678   1.400       .  A
C677        H684   1.084       .  S
C678        S680   1.803       .  S
S679        H682   1.407       .  S
S680        H681   1.406       .  S
C685        C686   1.403       .  A
C685        C690   1.415       .  A
C686        C687   1.399       .  A
C686        H695   1.084       .  S
C687        C688   1.418       .  A
C687        S691   1.803       .  S
C688        C689   1.405       .  A
C689        C690   1.396       .  A
C689        H696   1.084       .  S
C690        S692   1.804       .  S
S691        H694   1.407       .  S
S692        H693   1.407       .  S
C697        C698   1.405       .  A
C697        C702   1.415       .  A
C698        C699   1.393       .  A
C698        H707   1.084       .  S
C699        C700   1.413       .  A
C699        S703   1.805       .  S
C700        C701   1.403       .  A
C701        C702   1.405       .  A
C701        H708   1.079   1_655  S
C702        S704   1.803   1_655  S
S703        H706   1.406       .  S
S704        H705   1.405   1_455  S
C709        C710   1.406       .  A
C709        C714   1.414       .  A
C710        C711   1.399       .  A
C710        H719   1.084       .  S
C711        C712   1.416       .  A
C711        S715   1.803       .  S
C712        C713   1.408       .  A
C713        C714   1.397       .  A
C713        H720   1.084       .  S
C714        S716   1.803       .  S
S715        H718   1.407       .  S
S716        H717   1.407       .  S
C721        C722   1.407       .  A
C721        C726   1.420   1_655  A
C722        C723   1.396       .  A
C722        H731   1.083       .  S
C723        C724   1.411       .  A
C723        S727   1.803       .  S
C724        C725   1.404   1_655  A
C725        C726   1.403       .  A
C725        H732   1.084       .  S
C726        S728   1.802       .  S
S727        H730   1.405       .  S
S728        H729   1.407       .  S
C733        C734   1.405       .  A
C733        C738   1.420       .  A
C734        C735   1.400       .  A
C734        H743   1.083       .  S
C735        C736   1.416       .  A
C735        S739   1.805   1_554  S
C736        C737   1.401       .  A
C737        C738   1.400       .  A
C737        H744   1.084       .  S
C738        S740   1.803       .  S
S739        H742   1.405       .  S
S740        H741   1.407       .  S
C745        C746   1.409   1_655  A
C745        C750   1.415       .  A
C746        C747   1.401   1_455  A
C746        H755   1.083       .  S
C747        C748   1.411       .  A
C747        S751   1.802   1_655  S
C748        C749   1.405       .  A
C749        C750   1.401       .  A
C749        H756   1.084       .  S
C750        S752   1.800       .  S
S751        H754   1.406   1_455  S
S752        H753   1.407       .  S
C757        C758   1.403       .  A
C757        C762   1.418       .  A
C758        C759   1.393       .  A
C758        H767   1.078       .  S
C759        C760   1.412       .  A
C759        S763   1.805       .  S
C760        C761   1.407       .  A
C761        C762   1.403       .  A
C761        H768   1.084   1_554  S
C762        S764   1.802   1_554  S
S763        H766   1.407       .  S
S764        H765   1.406   1_556  S
C769        C770   1.407       .  A
C769        C774   1.407       .  A
C770        C771   1.410       .  A
C770        H779   1.083       .  S
C771        C772   1.416       .  A
C771        S775   1.799   1_565  S
C772        C773   1.405       .  A
C773        C774   1.387       .  A
C773        H780   1.083       .  S
C774        S776   1.797       .  S
S775        H778   1.398       .  S
S776        H777   1.407       .  S
C781        C782   1.401       .  A
C781        C786   1.413       .  A
C782        C783   1.391       .  A
C782        H791   1.084       .  S
C783        C784   1.416       .  A
C783        S787   1.792       .  S
C784        C785   1.407       .  A
C785        C786   1.407       .  A
C785        H792   1.077       .  S
C786        S788   1.797   1_655  S
S787        H790   1.407       .  S
S788        H789   1.406       .  S
C793        C794   1.401       .  A
C793        C798   1.408       .  A
C794        C795   1.407       .  A
C794        H803   1.083   1_565  S
C795        C796   1.419       .  A
C795        S799   1.805   1_565  S
C796        C797   1.408       .  A
C797        C798   1.389       .  A
C797        H804   1.082       .  S
C798        S800   1.807       .  S
S799        H802   1.400       .  S
S800        H801   1.404       .  S
C805        C806   1.401       .  A
C805        C810   1.415       .  A
C806        C807   1.405       .  A
C806        H815   1.084       .  S
C807        C808   1.417       .  A
C807        S811   1.792       .  S
C808        C809   1.404       .  A
C809        C810   1.396       .  A
C809        H816   1.083       .  S
C810        S812   1.806       .  S
S811        H814   1.407   1_554  S
S812        H813   1.406       .  S
C817        C818   1.411       .  A
C817        C822   1.414       .  A
C818        C819   1.395       .  A
C818        H827   1.083       .  S
C819        C820   1.409       .  A
C819        S823   1.805       .  S
C820        C821   1.399       .  A
C821        C822   1.401       .  A
C821        H828   1.082       .  S
C822        S824   1.786       .  S
S823        H826   1.406       .  S
S824        H825   1.401       .  S
C829        C830   1.402       .  A
C829        C834   1.415       .  A
C830        C831   1.394       .  A
C830        H839   1.085       .  S
C831        C832   1.418       .  A
C831        S835   1.805       .  S
C832        C833   1.406       .  A
C833        C834   1.401       .  A
C833        H840   1.084   1_554  S
C834        S836   1.802   1_554  S
S835        H838   1.407       .  S
S836        H837   1.407   1_556  S
C841        C842   1.402       .  A
C841        C846   1.406       .  A
C842        C843   1.406       .  A
C842        H851   1.078       .  S
C843        C844   1.420       .  A
C843        S847   1.800   1_565  S
C844        C845   1.410       .  A
C845        C846   1.384       .  A
C845        H852   1.083       .  S
C846        S848   1.807       .  S
S847        H850   1.401       .  S
S848        H849   1.407       .  S
C853        C854   1.407       .  A
C853        C858   1.409       .  A
C854        C855   1.399       .  A
C854        H863   1.083       .  S
C855        C856   1.418       .  A
C855        S859   1.806       .  S
C856        C857   1.408       .  A
C857        C858   1.408       .  A
C857        H864   1.081       .  S
C858        S860   1.791       .  S
S859        H862   1.407       .  S
S860        H861   1.406       .  S
C865        C866   1.396       .  A
C865        C870   1.409       .  A
C866        C867   1.401       .  A
C866        H875   1.085       .  S
C867        C868   1.429       .  A
C867        S871   1.799       .  S
C868        C869   1.412       .  A
C869        C870   1.397       .  A
C869        H876   1.082       .  S
C870        S872   1.806       .  S
S871        H874   1.400       .  S
S872        H873   1.406       .  S
C877        C878   1.408       .  A
C877        C882   1.422       .  A
C878        C879   1.397       .  A
C878        H887   1.083       .  S
C879        C880   1.409       .  A
C879        S883   1.800       .  S
C880        C881   1.400       .  A
C881        C882   1.398       .  A
C881        H888   1.084       .  S
C882        S884   1.804       .  S
S883        H886   1.402       .  S
S884        H885   1.407       .  S
C889        C890   1.404       .  A
C889        C894   1.411       .  A
C890        C891   1.406       .  A
C890        H899   1.078       .  S
C891        C892   1.418       .  A
C891        S895   1.803       .  S
C892        C893   1.408       .  A
C893        C894   1.391       .  A
C893        H900   1.082       .  S
C894        S896   1.807       .  S
S895        H898   1.404       .  S
S896        H897   1.407       .  S
C901        C902   1.401       .  A
C901        C906   1.416       .  A
C902        C903   1.398       .  A
C902        H911   1.084       .  S
C903        C904   1.423       .  A
C903        S907   1.812   1_655  S
C904        C905   1.404       .  A
C905        C906   1.400       .  A
C905        H912   1.084       .  S
C906        S908   1.803       .  S
S907        H910   1.406       .  S
S908        H909   1.402       .  S
C913        C914   1.403       .  A
C913        C918   1.409       .  A
C914        C915   1.406       .  A
C914        H923   1.077       .  S
C915        C916   1.416       .  A
C915        S919   1.802   1_565  S
C916        C917   1.408       .  A
C917        C918   1.386       .  A
C917        H924   1.084       .  S
C918        S920   1.807       .  S
S919        H922   1.403       .  S
S920        H921   1.407       .  S
C925        C926   1.406       .  A
C925        C930   1.420       .  A
C926        C927   1.391       .  A
C926        H935   1.082       .  S
C927        C928   1.410       .  A
C927        S931   1.806       .  S
C928        C929   1.397       .  A
C929        C930   1.399       .  A
C929        H936   1.077       .  S
C930        S932   1.802       .  S
S931        H934   1.406       .  S
S932        H933   1.407       .  S
C937        C938   1.408       .  A
C937        C942   1.411       .  A
C938        C939   1.388       .  A
C938        H947   1.084       .  S
C939        C940   1.409       .  A
C939        S943   1.807       .  S
C940        C941   1.401       .  A
C941        C942   1.398       .  A
C941        H948   1.076   1_655  S
C942        S944   1.798   1_655  S
S943        H946   1.407       .  S
S944        H945   1.406   1_455  S
C949        C950   1.392       .  A
C949        C954   1.408       .  A
C950        C951   1.397       .  A
C950        H959   1.085       .  S
C951        C952   1.421       .  A
C951        S955   1.779       .  S
C952        C953   1.412       .  A
C953        C954   1.392       .  A
C953        H960   1.082       .  S
C954        S956   1.806       .  S
S955        H958   1.406       .  S
S956        H957   1.404       .  S
C961        C962   1.403       .  A
C961        C966   1.405       .  A
C962        C963   1.395       .  A
C962        H971   1.084       .  S
C963        C964   1.418       .  A
C963        S967   1.807       .  S
C964        C965   1.405       .  A
C965        C966   1.400       .  A
C965        H972   1.083       .  S
C966        S968   1.784       .  S
S967        H970   1.407       .  S
S968        H969   1.406       .  S
C973        C974   1.408       .  A
C973        C978   1.430       .  A
C974        C975   1.397       .  A
C974        H983   1.082       .  S
C975        C976   1.400       .  A
C975        S979   1.784       .  S
C976        C977   1.394       .  A
C977        C978   1.398       .  A
C977        H984   1.084       .  S
C978        S980   1.808       .  S
S979        H982   1.405       .  S
S980        H981   1.395       .  S
C985        C986   1.407       .  A
C985        C990   1.423       .  A
C986        C987   1.388       .  A
C986        H995   1.082       .  S
C987        C988   1.407       .  A
C987        S991   1.798       .  S
C988        C989   1.405       .  A
C989        C990   1.409       .  A
C989        H996   1.084       .  S
C990        S992   1.800   1_565  S
S991        H994   1.407       .  S
S992        H993   1.407   1_545  S
C997        C998   1.399       .  A
C997       C1002   1.416       .  A
C998        C999   1.407       .  A
C998       H1007   1.079       .  S
C999       C1000   1.422       .  A
C999       S1003   1.797       .  S
C1000      C1001   1.408       .  A
C1001      C1002   1.401       .  A
C1001      H1008   1.083       .  S
C1002      S1004   1.805       .  S
S1003      H1006   1.408       .  S
S1004      H1005   1.406       .  S
C1009      C1010   1.401       .  A
C1009      C1014   1.407       .  A
C1010      C1011   1.387       .  A
C1010      H1019   1.085       .  S
C1011      C1012   1.413       .  A
C1011      S1015   1.803       .  S
C1012      C1013   1.399       .  A
C1013      C1014   1.398       .  A
C1013      H1020   1.077       .  S
C1014      S1016   1.789       .  S
S1015      H1018   1.407       .  S
S1016      H1017   1.405       .  S
C1021      C1022   1.411       .  A
C1021      C1026   1.426       .  A
C1022      C1023   1.382       .  A
C1022      H1031   1.075       .  S
C1023      C1024   1.401       .  A
C1023      S1027   1.803       .  S
C1024      C1025   1.407       .  A
C1025      C1026   1.415       .  A
C1025      H1032   1.084   1_565  S
C1026      S1028   1.803   1_565  S
S1027      H1030   1.404       .  S
S1028      H1029   1.404       .  S
C1033      C1034   1.403       .  A
C1033      C1038   1.413       .  A
C1034      C1035   1.396       .  A
C1034      H1043   1.085       .  S
C1035      C1036   1.416       .  A
C1035      S1039   1.804       .  S
C1036      C1037   1.407       .  A
C1037      C1038   1.404       .  A
C1037      H1044   1.083       .  S
C1038      S1040   1.807       .  S
S1039      H1042   1.407       .  S
S1040      H1041   1.407       .  S
C1045      C1046   1.406       .  A
C1045      C1050   1.408       .  A
C1046      C1047   1.403       .  A
C1046      H1055   1.084       .  S
C1047      C1048   1.419       .  A
C1047      S1051   1.804       .  S
C1048      C1049   1.409       .  A
C1049      C1050   1.398       .  A
C1049      H1056   1.079       .  S
C1050      S1052   1.805       .  S
S1051      H1054   1.407       .  S
S1052      H1053   1.406       .  S
C1057      C1058   1.407       .  A
C1057      C1062   1.412       .  A
C1058      C1059   1.403       .  A
C1058      H1067   1.084       .  S
C1059      C1060   1.412       .  A
C1059      S1063   1.798       .  S
C1060      C1061   1.405       .  A
C1061      C1062   1.389       .  A
C1061      H1068   1.084       .  S
C1062      S1064   1.807       .  S
S1063      H1066   1.404       .  S
S1064      H1065   1.407       .  S
C1069      C1070   1.406       .  A
C1069      C1074   1.426       .  A
C1070      C1071   1.396       .  A
C1070      H1079   1.083       .  S
C1071      C1072   1.413       .  A
C1071      S1075   1.805       .  S
C1072      C1073   1.400       .  A
C1073      C1074   1.399       .  A
C1073      H1080   1.084       .  S
C1074      S1076   1.811       .  S
S1075      H1078   1.406       .  S
S1076      H1077   1.406       .  S
C1081      C1082   1.398       .  A
C1081      C1086   1.411       .  A
C1082      C1083   1.404       .  A
C1082      H1091   1.084       .  S
C1083      C1084   1.426       .  A
C1083      S1087   1.800       .  S
C1084      C1085   1.405       .  A
C1085      C1086   1.389       .  A
C1085      H1092   1.083       .  S
C1086      S1088   1.807       .  S
S1087      H1090   1.405       .  S
S1088      H1089   1.405       .  S
C1093      C1094   1.413       .  A
C1093      C1098   1.435       .  A
C1094      C1095   1.396       .  A
C1094      H1103   1.076       .  S
C1095      C1096   1.407       .  A
C1095      S1099   1.800       .  S
C1096      C1097   1.394       .  A
C1097      C1098   1.399       .  A
C1097      H1104   1.084       .  S
C1098      S1100   1.814       .  S
S1099      H1102   1.402       .  S
S1100      H1101   1.407       .  S
C1105      C1106   1.401       .  A
C1105      C1110   1.413       .  A
C1106      C1107   1.408       .  A
C1106      H1115   1.084       .  S
C1107      C1108   1.426       .  A
C1107      S1111   1.801   1_655  S
C1108      C1109   1.407       .  A
C1109      C1110   1.394       .  A
C1109      H1116   1.083       .  S
C1110      S1112   1.806       .  S
S1111      H1114   1.403       .  S
S1112      H1113   1.406       .  S
C1117      C1118   1.404       .  A
C1117      C1122   1.422       .  A
C1118      C1119   1.383       .  A
C1118      H1127   1.082       .  S
C1119      C1120   1.408       .  A
C1119      S1123   1.798       .  S
C1120      C1121   1.406       .  A
C1121      C1122   1.410       .  A
C1121      H1128   1.084       .  S
C1122      S1124   1.802       .  S
S1123      H1126   1.407       .  S
S1124      H1125   1.405       .  S
C1129      C1130   1.404       .  A
C1129      C1134   1.416       .  A
C1130      C1131   1.397       .  A
C1130      H1139   1.084       .  S
C1131      C1132   1.418       .  A
C1131      S1135   1.803       .  S
C1132      C1133   1.407   1_655  A
C1133      C1134   1.400   1_455  A
C1133      H1140   1.084       .  S
C1134      S1136   1.802   1_655  S
S1135      H1138   1.407       .  S
S1136      H1137   1.407   1_455  S
C1141      C1142   1.407       .  A
C1141      C1146   1.421       .  A
C1142      C1143   1.405       .  A
C1142      H1151   1.084       .  S
C1143      C1144   1.412       .  A
C1143      S1147   1.794       .  S
C1144      C1145   1.404       .  A
C1145      C1146   1.399       .  A
C1145      H1152   1.084       .  S
C1146      S1148   1.806       .  S
S1147      H1150   1.407       .  S
S1148      H1149   1.407       .  S
C1153      C1154   1.411       .  A
C1153      C1158   1.426       .  A
C1154      C1155   1.392       .  A
C1154      H1163   1.080       .  S
C1155      C1156   1.406       .  A
C1155      S1159   1.800       .  S
C1156      C1157   1.398       .  A
C1157      C1158   1.406       .  A
C1157      H1164   1.084       .  S
C1158      S1160   1.790       .  S
S1159      H1162   1.406       .  S
S1160      H1161   1.408       .  S
C1165      C1166   1.404       .  A
C1165      C1170   1.415       .  A
C1166      C1167   1.398       .  A
C1166      H1175   1.084       .  S
C1167      C1168   1.416       .  A
C1167      S1171   1.803       .  S
C1168      C1169   1.402       .  A
C1169      C1170   1.397       .  A
C1169      H1176   1.084       .  S
C1170      S1172   1.797       .  S
S1171      H1174   1.401       .  S
S1172      H1173   1.408       .  S
