geometry optimzed in LAMMPS
_audit_creation_date              2020-12-01 
_audit_creation_method            'lammps2cif' 
_symmetry_space_group_name_H-M    'P1' 
_symmetry_Int_Tables_number       1 
_symmetry_cell_setting            triclinic 
loop_ 
_symmetry_equiv_pos_as_xyz 
  x,y,z 
_cell_length_a                    26.99987656 
_cell_length_b                    26.969364190120825 
_cell_length_c                    35.38150563509491 
_cell_angle_alpha                 90.07987526082059 
_cell_angle_beta                  89.8022213735802 
_cell_angle_gamma                 90.18635392297298 
loop_ 
_atom_site_label 
_atom_site_type_symbol 
_atom_site_fract_x 
_atom_site_fract_y 
_atom_site_fract_z 
_atom_site_charge 
C1          C  0.82267401  0.38299345  0.50626005     0.81200
N2          N  0.83477675  0.33408163  0.00732005    -0.77100
C3          C  0.88304816  0.32007518  0.00681004     0.83700
N4          N  0.91922901  0.35514317  0.00490216    -0.77000
C5          C  0.90748468  0.40410114  0.00394436     0.83800
N6          N  0.85909654  0.41784980  0.50457306    -0.78700
C7          C  0.81965023  0.37725360  0.24309472     0.81200
N8          N  0.83287006  0.32876667  0.24499180    -0.77100
C9          C  0.88149871  0.31598590  0.24507513     0.83700
N10         N  0.91690055  0.35179363  0.24344722    -0.77000
C11         C  0.90393098  0.40033950  0.24163561     0.83800
N12         N  0.85522742  0.41298223  0.24147226    -0.78700
C13         C  0.63690478  0.88296706  0.00390416     0.81200
N14         N  0.60186201  0.91894407  0.00494289    -0.77100
C15         C  0.55298806  0.90669610  0.00601958     0.83700
N16         N  0.53934724  0.85810619  0.00611028    -0.77000
C17         C  0.57431475  0.82201231  0.00487438     0.83800
N18         N  0.62305663  0.83454072  0.00363421    -0.78700
C19         C  0.63561680  0.87979972  0.25309169     0.81200
N20         N  0.59975458  0.91494583  0.25477579    -0.77100
C21         C  0.55111869  0.90204771  0.25459186     0.83700
N22         N  0.53842302  0.85330000  0.25298409    -0.77000
C23         C  0.57387976  0.81772210  0.25128227     0.83800
N24         N  0.62242228  0.83117269  0.25121005    -0.78700
Zn25       Zn  0.94943260  0.92536829  0.47076220     1.49700
Zn26       Zn  0.03021470  0.94931251  0.03443626     1.49400
Zn27       Zn  0.00756739  0.03064444  0.47139434     1.49100
Zn28       Zn  0.92512352  0.00624358  0.03379764     1.49500
O29         O  0.97815479  0.97785094  0.00252301    -1.83100
O30         O  0.98306520  0.85954493  0.47993499    -0.73700
O31         O  0.09671605  0.98259049  0.02589454    -0.73600
O32         O  0.99803187  0.01472627  0.41587241    -0.73100
O33         O  0.03876990  0.87599267  0.02450439    -0.73800
O34         O  0.95886986  0.94187810  0.41585956    -0.73400
O35         O  0.08127039  0.03797956  0.48095295    -0.73900
O36         O  0.91695290  0.07969266  0.02425865    -0.73300
O37         O  0.01287972  0.95768601  0.08917260    -0.74100
O38         O  0.97599959  0.09729547  0.48292479    -0.73500
O39         O  0.94047047  0.99698573  0.08907460    -0.73900
O40         O  0.85912586  0.97350033  0.02361669    -0.73800
O41         O  0.87554981  0.91668348  0.48002668    -0.73600
C42         C  0.01765357  0.84585830  0.00196078     0.78200
C43         C  0.11100829  0.01681121  0.00360229     0.78600
C44         C  0.97847726  0.97822967  0.39837569     0.77600
C45         C  0.94012772  0.11113460  0.00394498     0.78000
C46         C  0.97648855  0.97717476  0.10657272     0.79100
C47         C  0.84502575  0.93863547  0.00181522     0.78200
Zn48       Zn  0.00533424  0.03017063  0.28410702     1.49700
Zn49       Zn  0.92552365  0.00555690  0.22087631     1.49400
Zn50       Zn  0.02975689  0.94963835  0.22011427     1.49100
Zn51       Zn  0.94986192  0.92446177  0.28417885     1.49500
O52         O  0.97767535  0.97732208  0.25242067    -1.83100
O53         O  0.97252722  0.09608997  0.27457002    -0.73700
O54         O  0.93990036  0.99572841  0.16563867    -0.73600
O55         O  0.09543167  0.98288343  0.22953734    -0.73100
O56         O  0.91858823  0.07907207  0.22902277    -0.73800
O57         O  0.07816297  0.03851835  0.27403728    -0.73400
O58         O  0.01326640  0.95849765  0.16521958    -0.73900
O59         O  0.98285597  0.85805411  0.27343210    -0.73300
O60         O  0.85979804  0.97385994  0.23232135    -0.74100
O61         O  0.03844172  0.87642119  0.22918852    -0.73500
O62         O  0.87605119  0.91697474  0.27501176    -0.73900
O63         O  0.95938987  0.94108092  0.33949432    -0.73800
O64         O  0.99720935  0.01453308  0.33926793    -0.73600
C65         C  0.93928913  0.10965802  0.25140305     0.78200
C66         C  0.97645361  0.97704232  0.14795320     0.78600
C67         C  0.10882336  0.01733059  0.25194009     0.77600
C68         C  0.01730888  0.84502409  0.25077134     0.78000
C69         C  0.84502242  0.93919575  0.25397308     0.79100
C70         C  0.97838693  0.97791799  0.35688901     0.78200
C71         C  0.14482952  0.58088723  0.49354394     0.81200
N72         N  0.13042130  0.62910241  0.49453081    -0.77100
C73         C  0.08149043  0.64081985  0.49502740     0.83700
N74         N  0.04706004  0.60391975  0.49488603    -0.77000
C75         C  0.06114032  0.55558771  0.49411527     0.83800
N76         N  0.11014811  0.54425224  0.49341783    -0.78700
C77         C  0.13943842  0.57725772  0.24279631     0.81200
N78         N  0.10397817  0.54134621  0.24189779    -0.77100
C79         C  0.05519391  0.55368569  0.24151334     0.83700
N80         N  0.04187672  0.60220517  0.24205026    -0.77000
C81         C  0.07704386  0.63827509  0.24309361     0.83800
N82         N  0.12578106  0.62576363  0.24359576    -0.78700
C83         C  0.31693689  0.08018347  0.50284230     0.81200
N84         N  0.35334013  0.04558848  0.50380474    -0.77100
C85         C  0.40174816  0.05928008  0.50306387     0.83700
N86         N  0.41382407  0.10814230  0.50140571    -0.77000
C87         C  0.37777762  0.14309132  0.50047528     0.83800
N88         N  0.32932206  0.12912294  0.50125721    -0.78700
C89         C  0.31472122  0.07669491  0.25675272     0.81200
N90         N  0.35034724  0.04133406  0.25717721    -0.77100
C91         C  0.39897696  0.05441225  0.25700397     0.83700
N92         N  0.41159229  0.10318646  0.25647831    -0.77000
C93         C  0.37610170  0.13876670  0.25618591     0.83800
N94         N  0.32759231  0.12534578  0.25612056    -0.78700
Zn95       Zn  0.51148416  0.42765339  0.46696806     1.49700
Zn96       Zn  0.53336128  0.50998851  0.03029320     1.49400
Zn97       Zn  0.45546074  0.53293052  0.46519671     1.49100
Zn98       Zn  0.42870303  0.45333799  0.02919804     1.49500
O99         O  0.48222263  0.48083894  0.49781168    -1.83100
O100        O  0.58446206  0.41911006  0.47935475    -0.73700
O101        O  0.53925899  0.58398130  0.02283948    -0.73600
O102        O  0.46407499  0.51513113  0.41034658    -0.73100
O103        O  0.60016366  0.47976991  0.01966416    -0.73800
O104        O  0.50446249  0.44319441  0.41097467    -0.73400
O105        O  0.48859326  0.59917823  0.47490620    -0.73900
O106        O  0.36397761  0.48920406  0.02041452    -0.73300
O107        O  0.51773912  0.49798180  0.08528844    -0.74100
O108        O  0.38226870  0.54221134  0.47426171    -0.73500
O109        O  0.44516366  0.45855805  0.08446888    -0.73900
O110        O  0.41809524  0.38067864  0.01824908    -0.73800
O111        O  0.47683188  0.36186490  0.47650887    -0.73600
C112        C  0.61492917  0.44303506  0.50001801     0.78200
C113        C  0.51991949  0.61385687  0.49936872     0.78600
C114        C  0.48409160  0.47879757  0.39324235     0.77600
C115        C  0.35130087  0.52286937  0.49715291     0.78000
C116        C  0.48161298  0.47719755  0.10223248     0.79100
C117        C  0.44032618  0.34923629  0.49736599     0.78200
Zn118      Zn  0.50673558  0.42422296  0.21662832     1.49700
Zn119      Zn  0.42606217  0.45310109  0.28022825     1.49400
Zn120      Zn  0.53369955  0.50568257  0.27816111     1.49100
Zn121      Zn  0.45183493  0.53012028  0.21514786     1.49500
O122        O  0.47955290  0.47827628  0.24758085    -1.83100
O123        O  0.47247071  0.35991464  0.22932625    -0.73700
O124        O  0.44431925  0.46221356  0.33531547    -0.73600
O125        O  0.59971549  0.47380401  0.26560317    -0.73100
O126        O  0.41506338  0.37969831  0.27111754    -0.73800
O127        O  0.58042957  0.41421308  0.22509397    -0.73400
O128        O  0.52035260  0.49466162  0.33374481    -0.73900
O129        O  0.48390513  0.59630309  0.22594686    -0.73300
O130        O  0.36046397  0.48785916  0.27033233    -0.74100
O131        O  0.54023278  0.57957594  0.26995507    -0.73500
O132        O  0.37748721  0.53766401  0.22197688    -0.73900
O133        O  0.46387855  0.51408623  0.16064142    -0.73800
O134        O  0.49735943  0.43865486  0.16088453    -0.73600
C135        C  0.43655791  0.34726574  0.25068509     0.78200
C136        C  0.48305321  0.47813338  0.35193301     0.78600
C137        C  0.61243309  0.43725751  0.24489468     0.77600
C138        C  0.51814162  0.60999453  0.24834315     0.78000
C139        C  0.34685563  0.51928704  0.24560036     0.79100
C140        C  0.48101371  0.47646067  0.14340816     0.78200
C141        C  0.41978481  0.29370237  0.25174403    -0.04300
C142        C  0.43716943  0.25901278  0.22426661    -0.01400
C143        C  0.42299082  0.20865817  0.22605875     0.03600
C144        C  0.39042494  0.19192677  0.25452623    -0.04300
C145        C  0.37165002  0.22593286  0.28120078    -0.01400
C146        C  0.38645226  0.27625797  0.28022058     0.03600
C147        C  0.46907751  0.27425876  0.19323829     0.38200
C148        C  0.33768679  0.20883629  0.31039418     0.38200
C149        C  0.36716586  0.30920097  0.30918738     0.36600
C150        C  0.44091007  0.17407791  0.19761110     0.36600
N151        N  0.35135224  0.33511473  0.33235135    -0.38200
N152        N  0.45521843  0.14644289  0.17505393    -0.38200
N153        N  0.31037727  0.19521085  0.33345645    -0.37600
N154        N  0.49462542  0.28591203  0.16844154    -0.37700
C155        C  0.39171279  0.19622882  0.49951862    -0.04300
C156        C  0.40020938  0.22201985  0.03359698    -0.01400
C157        C  0.41602819  0.27194996  0.03287392     0.03600
C158        C  0.42356004  0.29651762  0.49794258    -0.04300
C159        C  0.41497572  0.27047040  0.46380971    -0.01400
C160        C  0.39900424  0.22052578  0.46465562     0.03600
C161        C  0.39333417  0.19677777  0.06944219     0.38200
C162        C  0.42166910  0.29525574  0.42778725     0.38200
C163        C  0.39037540  0.19386717  0.42964318     0.36600
C164        C  0.42647389  0.29735499  0.06815114     0.36600
N165        N  0.38351718  0.17241739  0.40179309    -0.38200
N166        N  0.43488021  0.31778875  0.09619497    -0.38200
N167        N  0.42722408  0.31514023  0.39911305    -0.37600
N168        N  0.38784951  0.17650718  0.09796821    -0.37700
C169        C  0.29404870  0.53502020  0.24441102    -0.04300
C170        C  0.27350952  0.56240439  0.27467872    -0.01400
C171        C  0.22331880  0.57715983  0.27378637     0.03600
C172        C  0.19279985  0.56341792  0.24309876    -0.04300
C173        C  0.21333613  0.53602071  0.21279598    -0.01400
C174        C  0.26395084  0.52264977  0.21313806     0.03600
C175        C  0.30442009  0.57632295  0.30645087     0.38200
C176        C  0.18250838  0.52230735  0.18089729     0.38200
C177        C  0.28486504  0.49556488  0.18145779     0.36600
C178        C  0.20284163  0.60568018  0.30489382     0.36600
N179        N  0.30143369  0.47413940  0.15605117    -0.38200
N180        N  0.18655649  0.62860657  0.32963089    -0.38200
N181        N  0.15771689  0.51133430  0.15558658    -0.37600
N182        N  0.32918067  0.58744556  0.33173723    -0.37700
C183        C  0.19814968  0.56809205  0.49404243    -0.04300
C184        C  0.22111082  0.54858451  0.46139276    -0.01400
C185        C  0.27143669  0.53465250  0.46228376     0.03600
C186        C  0.29888209  0.53927475  0.49607697    -0.04300
C187        C  0.27588402  0.55905044  0.02874753    -0.01400
C188        C  0.22581575  0.57397871  0.02756800     0.03600
C189        C  0.19299255  0.54319422  0.42674732     0.38200
C190        C  0.30394739  0.56480326  0.06339346     0.38200
C191        C  0.20250482  0.59482586  0.06099291     0.36600
C192        C  0.29455805  0.51396341  0.42871127     0.36600
N193        N  0.18385486  0.61163199  0.08756029    -0.38200
N194        N  0.31315720  0.49740753  0.40203029    -0.38200
N195        N  0.32626599  0.56936912  0.09105780    -0.37600
N196        N  0.17062377  0.53886372  0.39908981    -0.37700
C197        C  0.16161875  0.03265889  0.25296551    -0.04300
C198        C  0.18653821  0.03587883  0.28801543    -0.01400
C199        C  0.23668406  0.05041682  0.28922333     0.03600
C200        C  0.26206258  0.06215026  0.25553843    -0.04300
C201        C  0.23735687  0.05934286  0.22055955    -0.01400
C202        C  0.18738074  0.04409016  0.21916578     0.03600
C203        C  0.16114512  0.02251015  0.32280045     0.38200
C204        C  0.26351068  0.07228261  0.18601951     0.38200
C205        C  0.16239520  0.04105887  0.18298672     0.36600
C206        C  0.26220704  0.05351729  0.32516959     0.36600
N207        N  0.14261727  0.03839753  0.15408165    -0.38200
N208        N  0.28252840  0.05606070  0.35385242    -0.38200
N209        N  0.28450995  0.08281488  0.15859803    -0.37600
N210        N  0.14073825  0.01177829  0.35043798    -0.37700
C211        C  0.03290405  0.79195670  0.24891150    -0.04300
C212        C  0.04048865  0.76860663  0.21341346    -0.01400
C213        C  0.05510717  0.71841280  0.21155207     0.03600
C214        C  0.06211179  0.69103335  0.24499250    -0.04300
C215        C  0.05434983  0.71389286  0.28036908    -0.01400
C216        C  0.04037739  0.76427712  0.28241020     0.03600
C217        C  0.03216026  0.79574490  0.17862146     0.38200
C218        C  0.06043344  0.68523017  0.31472176     0.38200
C219        C  0.03581325  0.78796779  0.31908472     0.36600
C220        C  0.06260620  0.69469499  0.17515691     0.36600
N221        N  0.03251739  0.80677216  0.34840505    -0.38200
N222        N  0.06865662  0.67576262  0.14614545    -0.38200
N223        N  0.06503506  0.66206604  0.34198833    -0.37600
N224        N  0.02567385  0.81758622  0.15095262    -0.37700
C225        C  0.16371247  0.03245960  0.00392356    -0.04300
C226        C  0.19746248  0.01175670  0.47785381    -0.01400
C227        C  0.24741612  0.02740065  0.47745643     0.03600
C228        C  0.26406401  0.06412561  0.50315010    -0.04300
C229        C  0.23025592  0.08425120  0.02968973    -0.01400
C230        C  0.18031696  0.06834072  0.03008731     0.03600
C231        C  0.18077440  0.97394223  0.45157425     0.38200
C232        C  0.24716287  0.12004885  0.05748645     0.38200
C233        C  0.14591408  0.08875082  0.05752921     0.36600
C234        C  0.28139081  0.00625542  0.44999352     0.36600
N235        N  0.11842208  0.10496025  0.07942589    -0.38200
N236        N  0.30861246  0.98927181  0.42823874    -0.38200
N237        N  0.26068164  0.14856428  0.07967315    -0.37600
N238        N  0.16759520  0.94367016  0.43066254    -0.37700
C239        C  0.03448286  0.79368414  0.00068744    -0.04300
C240        C  0.01729034  0.75921936  0.02767818    -0.01400
C241        C  0.03258985  0.70925249  0.02579847     0.03600
C242        C  0.06558902  0.69351100  0.99703761    -0.04300
C243        C  0.08327370  0.72845156  0.47031184    -0.01400
C244        C  0.06767269  0.77832370  0.47215938     0.03600
C245        C  0.98357507  0.77517181  0.05726711     0.38200
C246        C  0.11629220  0.71287739  0.44014772     0.38200
C247        C  0.08609062  0.81410341  0.44488378     0.36600
C248        C  0.01511869  0.67428188  0.05402001     0.36600
N249        N  0.10074424  0.84284516  0.42328322    -0.38200
N250        N  0.00114294  0.64619543  0.07636896    -0.38200
N251        N  0.14262583  0.70061154  0.41602878    -0.37600
N252        N  0.95663883  0.78784827  0.08086260    -0.37700
C253        C  0.51215542  0.94107342  0.25536483    -0.04300
C254        C  0.51546085  0.98133695  0.28097854    -0.01400
C255        C  0.47861139  0.01836036  0.28147472     0.03600
C256        C  0.43808606  0.01566243  0.25633240    -0.04300
C257        C  0.43537541  0.97610485  0.23013866    -0.01400
C258        C  0.47197820  0.93887107  0.22981649     0.03600
C259        C  0.55619698  0.98437237  0.30756070     0.38200
C260        C  0.39635036  0.97502345  0.20200723     0.38200
C261        C  0.46922072  0.89941909  0.20194021     0.36600
C262        C  0.48213050  0.05885214  0.30842687     0.36600
N263        N  0.46703577  0.86788952  0.17978155    -0.38200
N264        N  0.48502208  0.09135050  0.32971190    -0.38200
N265        N  0.36541066  0.97435023  0.17945432    -0.37600
N266        N  0.58877852  0.98705552  0.32864296    -0.37700
C267        C  0.55961557  0.76442438  0.25037779    -0.04300
C268        C  0.52675868  0.74511354  0.27797173    -0.01400
C269        C  0.51386281  0.69437840  0.27762530     0.03600
C270        C  0.53267921  0.66287872  0.24921499    -0.04300
C271        C  0.56509376  0.68198999  0.22146258    -0.01400
C272        C  0.57893764  0.73250814  0.22219667     0.03600
C273        C  0.50703028  0.77711841  0.30735652     0.38200
C274        C  0.58443837  0.64941314  0.19228847     0.38200
C275        C  0.61202804  0.75174790  0.19329330     0.36600
C276        C  0.48122264  0.67446996  0.30657359     0.36600
N277        N  0.63851570  0.76694076  0.17023765    -0.38200
N278        N  0.45534781  0.65856504  0.32975077    -0.38200
N279        N  0.59976589  0.62328157  0.16909162    -0.37600
N280        N  0.49116560  0.80276724  0.33065588    -0.37700
C281        C  0.68886951  0.89468237  0.25332347    -0.04300
C282        C  0.72285819  0.87060267  0.27726416    -0.01400
C283        C  0.77308671  0.88558552  0.27826304     0.03600
C284        C  0.79080692  0.92437744  0.25430953    -0.04300
C285        C  0.75590126  0.94851963  0.23034907    -0.01400
C286        C  0.70563756  0.93378657  0.23005363     0.03600
C287        C  0.70597433  0.83081838  0.30186385     0.38200
C288        C  0.77051269  0.98894273  0.20553647     0.38200
C289        C  0.67131513  0.95824160  0.20462831     0.36600
C290        C  0.80558501  0.86088825  0.30483295     0.36600
N291        N  0.64398524  0.97784994  0.18446328    -0.38200
N292        N  0.83106801  0.84107642  0.32626201    -0.38200
N293        N  0.78158632  0.02118888  0.18564067    -0.37600
N294        N  0.69268186  0.79892752  0.32129606    -0.37700
C295        C  0.51471101  0.94620244  0.00565419    -0.04300
C296        C  0.51468297  0.98208129  0.47658787    -0.01400
C297        C  0.47844940  0.01970422  0.47616863     0.03600
C298        C  0.44106343  0.02090070  0.50421331    -0.04300
C299        C  0.44079848  0.98472989  0.03307119    -0.01400
C300        C  0.47781872  0.94795106  0.03403939     0.03600
C301        C  0.55052284  0.97901312  0.44601900     0.38200
C302        C  0.40307441  0.98593695  0.06240375     0.38200
C303        C  0.47870097  0.91302035  0.06511913     0.36600
C304        C  0.47866012  0.05610974  0.44600011     0.36600
N305        N  0.47895061  0.88568934  0.09027399    -0.38200
N306        N  0.47888320  0.08525559  0.42202729    -0.38200
N307        N  0.37283323  0.98680829  0.08565697    -0.37600
N308        N  0.57889700  0.97634998  0.42151720    -0.37700
C309        C  0.53384248  0.66721548  0.50080373    -0.04300
C310        C  0.53009074  0.69394122  0.53514215    -0.01400
C311        C  0.54301340  0.74468219  0.53645829     0.03600
C312        C  0.55950809  0.76911062  0.50348535    -0.04300
C313        C  0.56283399  0.74269662  0.96908601    -0.01400
C314        C  0.55050935  0.69181730  0.96780686     0.03600
C315        C  0.51185305  0.66960460  0.56903757     0.38200
C316        C  0.57819758  0.76813932  0.93485616     0.38200
C317        C  0.55689352  0.66435989  0.93283418     0.36600
C318        C  0.54015847  0.77146161  0.57197853     0.36600
N319        N  0.56231864  0.64241656  0.90499891    -0.38200
N320        N  0.53800484  0.79228471  0.60054977    -0.38200
N321        N  0.59011900  0.78851643  0.90751520    -0.37600
N322        N  0.49728577  0.65029761  0.59609703    -0.37700
C323        C  0.79179508  0.92335926  0.00215538    -0.04300
C324        C  0.76639067  0.91698879  0.03696432    -0.01400
C325        C  0.71576766  0.90369296  0.03742086     0.03600
C326        C  0.69007264  0.89651608  0.00323611    -0.04300
C327        C  0.71513737  0.90237266  0.46855602    -0.01400
C328        C  0.76577972  0.91581485  0.46791883     0.03600
C329        C  0.79253249  0.92265134  0.07250167     0.38200
C330        C  0.68851171  0.89496686  0.43341372     0.38200
C331        C  0.79037907  0.92353902  0.43186695     0.36600
C332        C  0.69001336  0.89710056  0.07316048     0.36600
N333        N  0.80975969  0.92971005  0.40301446    -0.38200
N334        N  0.66943869  0.89179067  0.10162899    -0.38200
N335        N  0.66720482  0.88905246  0.40543069    -0.37600
N336        N  0.81331742  0.92713896  0.10086475    -0.37700
C337        C  0.94283335  0.43936030  0.24133078    -0.04300
C338        C  0.97494858  0.44465138  0.27252762    -0.01400
C339        C  0.01193506  0.48178113  0.27243673     0.03600
C340        C  0.01658176  0.51437160  0.24139007    -0.04300
C341        C  0.98402941  0.50951922  0.21041851    -0.01400
C342        C  0.94783936  0.47157550  0.21010497     0.03600
C343        C  0.96887857  0.41283352  0.30528578     0.38200
C344        C  0.98827404  0.54314083  0.17858412     0.38200
C345        C  0.91715360  0.46434061  0.17697724     0.36600
C346        C  0.04401558  0.48767573  0.30496670     0.36600
N347        N  0.89306761  0.45823311  0.15037520    -0.38200
N348        N  0.06952124  0.49250320  0.33094796    -0.38200
N349        N  0.99153569  0.57016598  0.15331486    -0.37600
N350        N  0.96375973  0.38749267  0.33138980    -0.37700
C351        C  0.89602787  0.26319368  0.24679175    -0.04300
C352        C  0.91632806  0.23986954  0.21457800    -0.01400
C353        C  0.93054811  0.18965014  0.21615141     0.03600
C354        C  0.92466324  0.16252396  0.25001519    -0.04300
C355        C  0.90470297  0.18600252  0.28235199    -0.01400
C356        C  0.89031023  0.23622458  0.28070238     0.03600
C357        C  0.92217113  0.26751122  0.17968375     0.38200
C358        C  0.89785543  0.15814321  0.31704704     0.38200
C359        C  0.87041059  0.26044704  0.31407686     0.36600
C360        C  0.95279457  0.16630515  0.18326140     0.36600
N361        N  0.85461315  0.27981079  0.34070293    -0.38200
N362        N  0.97081266  0.14762208  0.15717790    -0.38200
N363        N  0.89231763  0.13581229  0.34466094    -0.37600
N364        N  0.92687905  0.28966088  0.15190521    -0.37700
C365        C  0.76660111  0.39124978  0.24360246    -0.04300
C366        C  0.73830262  0.38867890  0.21026976    -0.01400
C367        C  0.68805911  0.40340757  0.21049689     0.03600
C368        C  0.66555262  0.42090347  0.24432880    -0.04300
C369        C  0.69417489  0.42221561  0.27793475    -0.01400
C370        C  0.74428046  0.40727285  0.27749903     0.03600
C371        C  0.76117486  0.37089552  0.17564080     0.38200
C372        C  0.67193483  0.43741262  0.31348533     0.38200
C373        C  0.77270267  0.40702672  0.31226016     0.36600
C374        C  0.66024499  0.40146021  0.17551855     0.36600
N375        N  0.79533426  0.40644676  0.33997860    -0.38200
N376        N  0.63820750  0.39952321  0.14754938    -0.38200
N377        N  0.65422639  0.44971372  0.34179977    -0.37600
N378        N  0.77960822  0.35647027  0.14819195    -0.37700
C379        C  0.02300504  0.51558474  0.49565967    -0.04300
C380        C  0.98386433  0.51463364  0.46924296    -0.01400
C381        C  0.94623491  0.47824555  0.47187638     0.03600
C382        C  0.94740860  0.44229893  0.50095391    -0.04300
C383        C  0.98698554  0.44271079  0.02703248    -0.01400
C384        C  0.02459292  0.47912742  0.02439336     0.03600
C385        C  0.98320081  0.55010609  0.43842106     0.38200
C386        C  0.98817295  0.40679013  0.05754160     0.38200
C387        C  0.06400789  0.48013658  0.05215898     0.33000
C388        C  0.90719396  0.47683612  0.44381182     0.36600
N389        N  0.09550374  0.48093935  0.07427801    -0.38200
N390        N  0.87604533  0.47560811  0.42141419    -0.38200
N391        N  0.98905854  0.37816159  0.08185055    -0.37600
N392        N  0.98283017  0.57826177  0.41378197    -0.37700
C393        C  0.89635201  0.26667575  0.00598538    -0.04300
C394        C  0.88506595  0.23568304  0.53679657    -0.01400
C395        C  0.89992737  0.18542051  0.53659180     0.03600
C396        C  0.92491929  0.16491627  0.00470087    -0.04300
C397        C  0.93485473  0.19645060  0.97331259    -0.01400
C398        C  0.92088126  0.24688058  0.97419738     0.03600
C399        C  0.85851363  0.25571876  0.56910614     0.38200
C400        C  0.95834279  0.17741295  0.93933950     0.38200
C401        C  0.93002848  0.27825212  0.94153881     0.36600
C402        C  0.89042123  0.15571874  0.57005842     0.36600
N403        N  0.93700391  0.30337852  0.91556504    -0.38200
N404        N  0.88263417  0.13228168  0.59681541    -0.38200
N405        N  0.97721130  0.16260511  0.91216264    -0.37600
N406        N  0.83696860  0.27156139  0.59473466    -0.37700
C407        C  0.66860231  0.42773170  0.50159337    -0.04300
C408        C  0.69876505  0.44068423  0.03312734    -0.01400
C409        C  0.74907211  0.42642318  0.03439369     0.03600
C410        C  0.76986727  0.39809432  0.50487821    -0.04300
C411        C  0.74030979  0.38449867  0.47378007    -0.01400
C412        C  0.69032566  0.39964216  0.47175278     0.03600
C413        C  0.67849081  0.46772406  0.06514985     0.38200
C414        C  0.76186778  0.35568448  0.44316721     0.38200
C415        C  0.66222014  0.38699137  0.43820778     0.36600
C416        C  0.77931507  0.43989159  0.06666931     0.36600
N417        N  0.63997430  0.37661483  0.41139270    -0.38200
N418        N  0.80336062  0.45075118  0.09243274    -0.38200
N419        N  0.77910461  0.33262042  0.41890761    -0.37600
N420        N  0.66268137  0.48938771  0.09070244    -0.37700
C421        C  0.82264366  0.38295126  0.00631029     0.81200
N422        N  0.83480786  0.33412432  0.50725757    -0.77100
C423        C  0.88307864  0.32011937  0.50673982     0.83700
N424        N  0.91925945  0.35518756  0.50483503    -0.77000
C425        C  0.90751587  0.40414747  0.50389506     0.83800
N426        N  0.85906650  0.41780663  0.00461147    -0.78700
C427        C  0.81963633  0.37726591  0.74322369     0.81200
N428        N  0.83285976  0.32877987  0.74512193    -0.77100
C429        C  0.88149003  0.31600375  0.74522018     0.83700
N430        N  0.91688966  0.35181558  0.74360500    -0.77000
C431        C  0.90391306  0.40035873  0.74178870     0.83800
N432        N  0.85521001  0.41299741  0.74160965    -0.78700
C433        C  0.63692680  0.88293853  0.50397277     0.81200
N434        N  0.60187870  0.91891075  0.50499013    -0.77100
C435        C  0.55300586  0.90665768  0.50605053     0.83700
N436        N  0.53937119  0.85806640  0.50614468    -0.77000
C437        C  0.57434341  0.82197643  0.50493141     0.83800
N438        N  0.62308515  0.83450986  0.50370636    -0.78700
C439        C  0.63559137  0.87982088  0.75305991     0.81200
N440        N  0.59973088  0.91496970  0.75475008    -0.77100
C441        C  0.55109356  0.90207174  0.75457105     0.83700
N442        N  0.53839738  0.85332388  0.75296030    -0.77000
C443        C  0.57385336  0.81774585  0.75124936     0.83800
N444        N  0.62239529  0.83119519  0.75117413    -0.78700
Zn445      Zn  0.94944157  0.92531099  0.97075845     1.49700
Zn446      Zn  0.03021743  0.94935346  0.53443692     1.49400
Zn447      Zn  0.00754706  0.03060620  0.97139840     1.49100
Zn448      Zn  0.92513788  0.00630419  0.53380258     1.49500
O449        O  0.97816142  0.97790128  0.50252457    -1.83100
O450        O  0.98307858  0.85948989  0.97994107    -0.73700
O451        O  0.09672729  0.98261337  0.52589293    -0.73600
O452        O  0.99800783  0.01469459  0.91587652    -0.73100
O453        O  0.03875908  0.87603713  0.52449859    -0.73800
O454        O  0.95888347  0.94182573  0.91585742    -0.73400
O455        O  0.08124785  0.03795365  0.98095458    -0.73900
O456        O  0.91697564  0.07975205  0.52424935    -0.73300
O457        O  0.01288578  0.95772037  0.58917552    -0.74100
O458        O  0.97597536  0.09725296  0.98294045    -0.73500
O459        O  0.94049284  0.99704988  0.58907914    -0.73900
O460        O  0.85913218  0.97355963  0.52364001    -0.73800
O461        O  0.87555547  0.91662345  0.98000643    -0.73600
C462        C  0.01764053  0.84590848  0.50195222     0.78200
C463        C  0.11102717  0.01682949  0.50359950     0.78600
C464        C  0.97847010  0.97819116  0.89837693     0.77600
C465        C  0.94015212  0.11118403  0.50392705     0.78000
C466        C  0.97650169  0.97722101  0.60657664     0.79100
C467        C  0.84502655  0.93869207  0.50184289     0.78200
Zn468      Zn  0.00531584  0.03016361  0.78411849     1.49700
Zn469      Zn  0.92551280  0.00557695  0.72088036     1.49400
Zn470      Zn  0.02974707  0.94964195  0.72012041     1.49100
Zn471      Zn  0.94983485  0.92446165  0.78417245     1.49500
O472        O  0.97765849  0.97732545  0.75242285    -1.83100
O473        O  0.97250117  0.09608096  0.77460530    -0.73700
O474        O  0.93990955  0.99576941  0.66564242    -0.73600
O475        O  0.09541991  0.98289474  0.72954838    -0.73100
O476        O  0.91857138  0.07909287  0.72904586    -0.73800
O477        O  0.07813845  0.03853149  0.77404381    -0.73400
O478        O  0.01326347  0.95851291  0.66522452    -0.73900
O479        O  0.98283026  0.85805995  0.77342734    -0.73300
O480        O  0.85978351  0.97386890  0.73230996    -0.74100
O481        O  0.03843279  0.87642048  0.72919457    -0.73500
O482        O  0.87602750  0.91696793  0.77499064    -0.73900
O483        O  0.95936066  0.94106503  0.83949116    -0.73800
O484        O  0.99720374  0.01450486  0.83927467    -0.73600
C485        C  0.93926669  0.10966428  0.75144122     0.78200
C486        C  0.97646050  0.97707691  0.64795752     0.78600
C487        C  0.10880368  0.01734856  0.75194835     0.77600
C488        C  0.01729133  0.84502645  0.75077576     0.78000
C489        C  0.84500390  0.93919302  0.75394994     0.79100
C490        C  0.97837286  0.97789036  0.85689065     0.78200
C491        C  0.14479122  0.58081592  0.99356903     0.81200
N492        N  0.13038354  0.62903074  0.99454805    -0.77100
C493        C  0.08145312  0.64075096  0.99502332     0.83700
N494        N  0.04702027  0.60385163  0.99486640    -0.77000
C495        C  0.06110291  0.55551967  0.99410646     0.83800
N496        N  0.11011015  0.54418174  0.99343354    -0.78700
C497        C  0.13941230  0.57725400  0.74288105     0.81200
N498        N  0.10394897  0.54134362  0.74200475    -0.77100
C499        C  0.05516652  0.55368947  0.74162079     0.83700
N500        N  0.04185200  0.60220845  0.74213827    -0.77000
C501        C  0.07702200  0.63827555  0.74316228     0.83800
N502        N  0.12575838  0.62576130  0.74366127    -0.78700
C503        C  0.31690656  0.08020017  0.00286699     0.81200
N504        N  0.35331331  0.04560835  0.00383007    -0.77100
C505        C  0.40171962  0.05930607  0.00308660     0.83700
N506        N  0.41379023  0.10816884  0.00142484    -0.77000
C507        C  0.37774094  0.14311419  0.00049524     0.83800
N508        N  0.32928645  0.12914130  0.00128003    -0.78700
C509        C  0.31469586  0.07673798  0.75675311     0.81200
N510        N  0.35031572  0.04136993  0.75717302    -0.77100
C511        C  0.39894816  0.05443903  0.75700219     0.83700
N512        N  0.41157198  0.10321127  0.75648232    -0.77000
C513        C  0.37608794  0.13879824  0.75619442     0.83800
N514        N  0.32757604  0.12538667  0.75612802    -0.78700
Zn515      Zn  0.51146723  0.42767288  0.96697392     1.49700
Zn516      Zn  0.53336216  0.50995784  0.53029419     1.49400
Zn517      Zn  0.45543316  0.53294969  0.96521226     1.49100
Zn518      Zn  0.42869868  0.45332435  0.52918041     1.49500
O519        O  0.48221421  0.48086081  0.99782062    -1.83100
O520        O  0.58444548  0.41911791  0.97935915    -0.73700
O521        O  0.53925688  0.58394863  0.52285057    -0.73600
O522        O  0.46403954  0.51515382  0.91035901    -0.73100
O523        O  0.60017046  0.47975667  0.51966524    -0.73800
O524        O  0.50443830  0.44322270  0.91098108    -0.73400
O525        O  0.48856233  0.59920208  0.97491354    -0.73900
O526        O  0.36398095  0.48920175  0.52037926    -0.73300
O527        O  0.51773213  0.49794301  0.58528592    -0.74100
O528        O  0.38224060  0.54221573  0.97429330    -0.73500
O529        O  0.44513884  0.45855304  0.58445969    -0.73900
O530        O  0.41809635  0.38066223  0.51822620    -0.73800
O531        O  0.47681347  0.36188310  0.97651877    -0.73600
C532        C  0.61491503  0.44303916  0.00002291     0.78200
C533        C  0.51990463  0.61388555  0.99936244     0.78600
C534        C  0.48406120  0.47882522  0.89325149     0.77600
C535        C  0.35128265  0.52286727  0.99718968     0.78000
C536        C  0.48159311  0.47717814  0.60222736     0.79100
C537        C  0.44031600  0.34925285  0.99738405     0.78200
Zn538      Zn  0.50674223  0.42424676  0.71663537     1.49700
Zn539      Zn  0.42605312  0.45312204  0.78023010     1.49400
Zn540      Zn  0.53367650  0.50571811  0.77816964     1.49100
Zn541      Zn  0.45181202  0.53013168  0.71513993     1.49500
O542        O  0.47954161  0.47830024  0.74758194    -1.83100
O543        O  0.47248493  0.35993385  0.72933744    -0.73700
O544        O  0.44430179  0.46222617  0.83532053    -0.73600
O545        O  0.59969730  0.47383424  0.76563514    -0.73100
O546        O  0.41505893  0.37972425  0.77111300    -0.73800
O547        O  0.58043759  0.41424926  0.72511259    -0.73400
O548        O  0.52031689  0.49471474  0.83375496    -0.73900
O549        O  0.48390012  0.59631496  0.72591805    -0.73300
O550        O  0.36045408  0.48787598  0.77033948    -0.74100
O551        O  0.54020954  0.57960661  0.76994514    -0.73500
O552        O  0.37746425  0.53768814  0.72198601    -0.73900
O553        O  0.46382987  0.51406958  0.66063228    -0.73800
O554        O  0.49736785  0.43866399  0.66088736    -0.73600
C555        C  0.43656309  0.34728913  0.75068926     0.78200
C556        C  0.48302483  0.47816637  0.85194125     0.78600
C557        C  0.61242772  0.43729103  0.74492789     0.77600
C558        C  0.51812949  0.61001524  0.74831830     0.78000
C559        C  0.34683893  0.51930789  0.74561312     0.79100
C560        C  0.48098906  0.47645024  0.64340437     0.78200
C561        C  0.41978832  0.29372765  0.75175112    -0.04300
C562        C  0.43715554  0.25904002  0.72426669    -0.01400
C563        C  0.42297716  0.20868570  0.72606253     0.03600
C564        C  0.39042087  0.19195557  0.75453693    -0.04300
C565        C  0.37166118  0.22596128  0.78121808    -0.01400
C566        C  0.38646992  0.27628421  0.78023726     0.03600
C567        C  0.46904027  0.27429007  0.69322595     0.38200
C568        C  0.33770660  0.20886720  0.81041795     0.38200
C569        C  0.36720522  0.30922668  0.80921309     0.36600
C570        C  0.44088654  0.17410447  0.69761206     0.36600
N571        N  0.35140949  0.33514165  0.83238329    -0.38200
N572        N  0.45518782  0.14646788  0.67505353    -0.38200
N573        N  0.31040335  0.19524571  0.83348597    -0.37600
N574        N  0.49456953  0.28594746  0.66841917    -0.37700
C575        C  0.39167478  0.19625204  0.99953727    -0.04300
C576        C  0.40026415  0.22199201  0.53357806    -0.01400
C577        C  0.41606998  0.27192593  0.53285434     0.03600
C578        C  0.42354468  0.29653476  0.99796174    -0.04300
C579        C  0.41497854  0.27048143  0.96382866    -0.01400
C580        C  0.39899918  0.22053934  0.96467422     0.03600
C581        C  0.39341094  0.19674481  0.56942326     0.38200
C582        C  0.42170156  0.29525696  0.92780529     0.38200
C583        C  0.39040105  0.19387240  0.92966100     0.36600
C584        C  0.42652427  0.29733225  0.56812931     0.36600
N585        N  0.38356978  0.17241734  0.90180933    -0.38200
N586        N  0.43493654  0.31777215  0.59616935    -0.38200
N587        N  0.42728131  0.31513404  0.89913083    -0.37600
N588        N  0.38794229  0.17647135  0.59794979    -0.37700
C589        C  0.29403126  0.53504159  0.74443814    -0.04300
C590        C  0.27351027  0.56243370  0.77470897    -0.01400
C591        C  0.22331455  0.57717516  0.77383779     0.03600
C592        C  0.19277426  0.56341498  0.74316728    -0.04300
C593        C  0.21329355  0.53601501  0.71285926    -0.01400
C594        C  0.26391172  0.52265472  0.71318108     0.03600
C595        C  0.30444558  0.57637686  0.80646090     0.38200
C596        C  0.18244475  0.52229201  0.68097458     0.38200
C597        C  0.28480826  0.49556846  0.68149482     0.36600
C598        C  0.20285480  0.60570186  0.80494869     0.36600
N599        N  0.30136204  0.47414326  0.65608246    -0.38200
N600        N  0.18658225  0.62863298  0.82968804    -0.38200
N601        N  0.15763554  0.51131369  0.65567513    -0.37600
N602        N  0.32922746  0.58752011  0.83172994    -0.37700
C603        C  0.19811049  0.56802246  0.99407840    -0.04300
C604        C  0.22109479  0.54857038  0.96141951    -0.01400
C605        C  0.27142719  0.53466357  0.96231164     0.03600
C606        C  0.29885592  0.53925080  0.99611593    -0.04300
C607        C  0.27593841  0.55914124  0.52869566    -0.01400
C608        C  0.22587674  0.57409097  0.52751761     0.03600
C609        C  0.19299104  0.54320447  0.92676497     0.38200
C610        C  0.30402502  0.56493786  0.56332657     0.38200
C611        C  0.20259489  0.59500210  0.56093089     0.36600
C612        C  0.29457195  0.51403392  0.92872713     0.36600
N613        N  0.18396913  0.61185950  0.58748919    -0.38200
N614        N  0.31319008  0.49752609  0.90203651    -0.38200
N615        N  0.32636332  0.56953834  0.59097838    -0.37600
N616        N  0.17063259  0.53889061  0.89910113    -0.37700
C617        C  0.16159478  0.03269287  0.75297225    -0.04300
C618        C  0.18651243  0.03593041  0.78802210    -0.01400
C619        C  0.23665523  0.05047953  0.78922823     0.03600
C620        C  0.26203391  0.06220310  0.75554136    -0.04300
C621        C  0.23732632  0.05939017  0.72056337    -0.01400
C622        C  0.18735270  0.04412794  0.71917154     0.03600
C623        C  0.16112112  0.02256817  0.82280932     0.38200
C624        C  0.26347409  0.07233767  0.68602246     0.38200
C625        C  0.16236475  0.04109161  0.68299359     0.36600
C626        C  0.26217444  0.05360356  0.82517493     0.36600
N627        N  0.14258419  0.03842709  0.65408967    -0.38200
N628        N  0.28249221  0.05616780  0.85385822    -0.38200
N629        N  0.28446699  0.08287778  0.65859993    -0.37600
N630        N  0.14071521  0.01184156  0.85044841    -0.37700
C631        C  0.03288776  0.79195883  0.74893064    -0.04300
C632        C  0.04049899  0.76859756  0.71344020    -0.01400
C633        C  0.05512108  0.71840391  0.71159507     0.03600
C634        C  0.06209331  0.69103425  0.74504394    -0.04300
C635        C  0.05429531  0.71390131  0.78041264    -0.01400
C636        C  0.04032891  0.76428768  0.78243829     0.03600
C637        C  0.03218815  0.79572120  0.67863926     0.38200
C638        C  0.06033479  0.68524355  0.81477277     0.38200
C639        C  0.03573717  0.78798789  0.81910752     0.36600
C640        C  0.06265086  0.69467317  0.67520842     0.36600
N641        N  0.03242033  0.80679900  0.84842412    -0.38200
N642        N  0.06872631  0.67572752  0.64620498    -0.38200
N643        N  0.06490033  0.66208196  0.84204432    -0.37600
N644        N  0.02571336  0.81754855  0.65096240    -0.37700
C645        C  0.16373576  0.03246378  0.50391838    -0.04300
C646        C  0.19744006  0.01178187  0.97784625    -0.01400
C647        C  0.24739175  0.02743203  0.97745609     0.03600
C648        C  0.26403565  0.06413676  0.00316782    -0.04300
C649        C  0.23028653  0.08426392  0.52966347    -0.01400
C650        C  0.18034537  0.06836098  0.53006720     0.03600
C651        C  0.18075400  0.97399222  0.95154515     0.38200
C652        C  0.24719772  0.12007798  0.55744652     0.38200
C653        C  0.14594673  0.08879096  0.55750357     0.36600
C654        C  0.28136887  0.00631441  0.94998275     0.36600
N655        N  0.11845884  0.10501478  0.57939696    -0.38200
N656        N  0.30859211  0.98935238  0.92821926    -0.38200
N657        N  0.26072001  0.14860647  0.57962235    -0.37600
N658        N  0.16757435  0.94374123  0.93061601    -0.37700
C659        C  0.03447038  0.79373599  0.50067337    -0.04300
C660        C  0.01730896  0.75927668  0.52767903    -0.01400
C661        C  0.03263119  0.70931701  0.52580828     0.03600
C662        C  0.06561830  0.69357672  0.49703905    -0.04300
C663        C  0.08328526  0.72839371  0.97033180    -0.01400
C664        C  0.06770575  0.77827229  0.97218726     0.03600
C665        C  0.98359402  0.77522511  0.55726954     0.38200
C666        C  0.11632704  0.71282197  0.94018172     0.38200
C667        C  0.08617011  0.81405929  0.94493541     0.36600
C668        C  0.01519265  0.67435218  0.55404564     0.36600
N669        N  0.10086348  0.84280561  0.92335398    -0.38200
N670        N  0.00124204  0.64627030  0.57640698    -0.38200
N671        N  0.14267986  0.70055675  0.91607480    -0.37600
N672        N  0.95665501  0.78789805  0.58086427    -0.37700
C673        C  0.51212723  0.94109630  0.75535153    -0.04300
C674        C  0.51542933  0.98135280  0.78097180    -0.01400
C675        C  0.47857642  0.01837349  0.78147466     0.03600
C676        C  0.43805254  0.01568278  0.75633028    -0.04300
C677        C  0.43534271  0.97613010  0.73013221    -0.01400
C678        C  0.47194684  0.93889683  0.72980547     0.03600
C679        C  0.55616643  0.98438443  0.80755303     0.38200
C680        C  0.39631894  0.97505469  0.70199963     0.38200
C681        C  0.46918772  0.89944843  0.70192650     0.36600
C682        C  0.48209046  0.05885603  0.80843516     0.36600
N683        N  0.46700194  0.86792107  0.67976599    -0.38200
N684        N  0.48497605  0.09134798  0.82972639    -0.38200
N685        N  0.36538160  0.97438597  0.67944476    -0.37600
N686        N  0.58874876  0.98706569  0.82863460    -0.37700
C687        C  0.55959090  0.76444843  0.75034393    -0.04300
C688        C  0.52676064  0.74513030  0.77795255    -0.01400
C689        C  0.51386847  0.69439456  0.77760721     0.03600
C690        C  0.53266401  0.66290061  0.74918495    -0.04300
C691        C  0.56505814  0.68201785  0.72142087    -0.01400
C692        C  0.57889589  0.73253799  0.72215209     0.03600
C693        C  0.50706041  0.77712781  0.80735299     0.38200
C694        C  0.58439532  0.64944379  0.69224211     0.38200
C695        C  0.61196554  0.75178508  0.69323767     0.36600
C696        C  0.48125402  0.67447920  0.80656956     0.36600
N697        N  0.63843688  0.76698375  0.67017334    -0.38200
N698        N  0.45540001  0.65856798  0.82975768    -0.38200
N699        N  0.59971953  0.62331459  0.66904241    -0.37600
N700        N  0.49121975  0.80277058  0.83066572    -0.37700
C701        C  0.68884556  0.89469490  0.75329086    -0.04300
C702        C  0.72282423  0.87062774  0.77724675    -0.01400
C703        C  0.77305551  0.88560165  0.77824486     0.03600
C704        C  0.79078909  0.92436894  0.75427328    -0.04300
C705        C  0.75589678  0.94848267  0.73028431    -0.01400
C706        C  0.70562798  0.93376546  0.72999572     0.03600
C707        C  0.70592697  0.83086273  0.80185952     0.38200
C708        C  0.77053055  0.98884946  0.70542639     0.38200
C709        C  0.67131499  0.95819535  0.70454929     0.36600
C710        C  0.80554328  0.86091684  0.80482897     0.36600
N711        N  0.64399239  0.97778215  0.68436637    -0.38200
N712        N  0.83101723  0.84111225  0.82626826    -0.38200
N713        N  0.78162339  0.02104925  0.68549323    -0.37600
N714        N  0.69262270  0.79898602  0.82130059    -0.37700
C715        C  0.51472488  0.94616008  0.50566563    -0.04300
C716        C  0.51463029  0.98210449  0.97656336    -0.01400
C717        C  0.47839363  0.01972438  0.97615669     0.03600
C718        C  0.44104059  0.02093365  0.00422609    -0.04300
C719        C  0.44078090  0.98467466  0.53304298    -0.01400
C720        C  0.47779370  0.94788926  0.53402203     0.03600
C721        C  0.55043244  0.97901861  0.94597013     0.38200
C722        C  0.40302305  0.98586489  0.56235080     0.38200
C723        C  0.47862525  0.91292853  0.56508375     0.36600
C724        C  0.47856584  0.05611430  0.94597750     0.36600
N725        N  0.47883361  0.88556997  0.59022171    -0.38200
N726        N  0.47875673  0.08524946  0.92199722    -0.38200
N727        N  0.37275521  0.98672256  0.58558416    -0.37600
N728        N  0.57877662  0.97633988  0.92144921    -0.37700
C729        C  0.53382665  0.66724529  0.00078502    -0.04300
C730        C  0.53007087  0.69398640  0.03511589    -0.01400
C731        C  0.54298808  0.74472938  0.03641865     0.03600
C732        C  0.55947640  0.76914635  0.00343887    -0.04300
C733        C  0.56285789  0.74267757  0.46912483    -0.01400
C734        C  0.55052339  0.69180161  0.46783112     0.03600
C735        C  0.51183949  0.66966224  0.06901820     0.38200
C736        C  0.57822055  0.76813550  0.43490132     0.38200
C737        C  0.55689037  0.66436379  0.43284767     0.36600
C738        C  0.54014436  0.77151992  0.07193443     0.36600
N739        N  0.56229941  0.64243718  0.40500287    -0.38200
N740        N  0.53800316  0.79234993  0.10050314    -0.38200
N741        N  0.59014069  0.78852512  0.40756555    -0.37600
N742        N  0.49727771  0.65036663  0.09608410    -0.37700
C743        C  0.79179858  0.92340428  0.50219640    -0.04300
C744        C  0.76640979  0.91701837  0.53701073    -0.01400
C745        C  0.71579531  0.90368713  0.53747738     0.03600
C746        C  0.69009173  0.89649956  0.50329764    -0.04300
C747        C  0.71513499  0.90236754  0.96849922    -0.01400
C748        C  0.76578560  0.91578027  0.96787221     0.03600
C749        C  0.79255826  0.92270461  0.57254299     0.38200
C750        C  0.68851770  0.89497327  0.93335187     0.38200
C751        C  0.79040425  0.92348404  0.93182542     0.36600
C752        C  0.69005903  0.89706846  0.57322171     0.36600
N753        N  0.80980101  0.92963875  0.90297716    -0.38200
N754        N  0.66949895  0.89173552  0.60169386    -0.38200
N755        N  0.66721714  0.88906895  0.90536479    -0.37600
N756        N  0.81334683  0.92721255  0.60090271    -0.37700
C757        C  0.94280551  0.43938216  0.74147858    -0.04300
C758        C  0.97474152  0.44486098  0.77276296    -0.01400
C759        C  0.01172149  0.48199664  0.77266583     0.03600
C760        C  0.01655166  0.51438514  0.74151359    -0.04300
C761        C  0.98417403  0.50934996  0.71045298    -0.01400
C762        C  0.94797662  0.47141360  0.71015854     0.03600
C763        C  0.96849464  0.41322654  0.80560537     0.38200
C764        C  0.98859935  0.54278540  0.67851830     0.38200
C765        C  0.91744025  0.46400556  0.67697113     0.36600
C766        C  0.04360291  0.48811201  0.80528673     0.36600
N767        N  0.89346859  0.45775993  0.65032669    -0.38200
N768        N  0.06894471  0.49312216  0.83134189    -0.38200
N769        N  0.99200770  0.56966284  0.65316807    -0.37600
N770        N  0.96323528  0.38803200  0.83177603    -0.37700
C771        C  0.89602128  0.26321020  0.74691177    -0.04300
C772        C  0.91631643  0.23991251  0.71468471    -0.01400
C773        C  0.93053348  0.18969049  0.71623142     0.03600
C774        C  0.92463935  0.16253154  0.75007882    -0.04300
C775        C  0.90468392  0.18598352  0.78242891    -0.01400
C776        C  0.89030341  0.23621100  0.78080817     0.03600
C777        C  0.92215863  0.26758528  0.67980462     0.38200
C778        C  0.89783485  0.15809336  0.81710950     0.38200
C779        C  0.87042020  0.26040877  0.81419867     0.36600
C780        C  0.95279640  0.16637931  0.68333414     0.36600
N781        N  0.85463855  0.27975277  0.84083851    -0.38200
N782        N  0.97083248  0.14772435  0.65724622    -0.38200
N783        N  0.89229755  0.13573813  0.84471207    -0.37600
N784        N  0.92686424  0.28976092  0.65203788    -0.37700
C785        C  0.76658716  0.39125981  0.74370700    -0.04300
C786        C  0.73833292  0.38875196  0.71034981    -0.01400
C787        C  0.68808921  0.40348025  0.71055510     0.03600
C788        C  0.66554564  0.42093363  0.74438491    -0.04300
C789        C  0.69412783  0.42219866  0.77801143    -0.01400
C790        C  0.74422750  0.40723615  0.77760128     0.03600
C791        C  0.76125330  0.37103965  0.67571789     0.38200
C792        C  0.67185324  0.43737702  0.81355383     0.38200
C793        C  0.77260553  0.40692977  0.81238301     0.36600
C794        C  0.66031293  0.40157821  0.67555818     0.36600
N795        N  0.79520311  0.40630100  0.84011690    -0.38200
N796        N  0.63830516  0.39967595  0.64757408    -0.38200
N797        N  0.65411682  0.44966900  0.84186028    -0.37600
N798        N  0.77972798  0.35667496  0.64826658    -0.37700
C799        C  0.02297381  0.51551703  0.99566386    -0.04300
C800        C  0.98392903  0.51444673  0.96916834    -0.01400
C801        C  0.94629414  0.47806582  0.97181887     0.03600
C802        C  0.94737655  0.44224504  0.00098784    -0.04300
C803        C  0.98710403  0.44265567  0.52692457    -0.01400
C804        C  0.02471146  0.47907555  0.52429892     0.03600
C805        C  0.98338062  0.54977880  0.93825173     0.38200
C806        C  0.98838281  0.40662001  0.55735268     0.38200
C807        C  0.06421324  0.47996400  0.55199484     0.33000
C808        C  0.90734419  0.47652707  0.94368436     0.36600
N809        N  0.09577685  0.48066781  0.57405957    -0.38200
N810        N  0.87626816  0.47519206  0.92123145    -0.38200
N811        N  0.98934123  0.37790000  0.58159678    -0.37600
N812        N  0.98310517  0.57781736  0.91353379    -0.37700
C813        C  0.89638049  0.26672086  0.50592669    -0.04300
C814        C  0.88498765  0.23560953  0.03682816    -0.01400
C815        C  0.89984511  0.18534512  0.03660990     0.03600
C816        C  0.92494433  0.16496352  0.50466855    -0.04300
C817        C  0.93482082  0.19646527  0.47325150    -0.01400
C818        C  0.92085502  0.24689765  0.47412481     0.03600
C819        C  0.85839218  0.25561830  0.06912673     0.38200
C820        C  0.95823277  0.17738694  0.43926139     0.38200
C821        C  0.92995349  0.27824217  0.44144379     0.36600
C822        C  0.89027267  0.15561299  0.07005043     0.36600
N823        N  0.93689096  0.30334699  0.41545219    -0.38200
N824        N  0.88243214  0.13215313  0.09678706    -0.38200
N825        N  0.97703923  0.16254384  0.41207077    -0.37600
N826        N  0.83681552  0.27143774  0.09474801    -0.37700
C827        C  0.66858181  0.42771735  0.00161078    -0.04300
C828        C  0.69880333  0.44072954  0.53309341    -0.01400
C829        C  0.74911541  0.42648304  0.53434662     0.03600
C830        C  0.76983751  0.39805377  0.00492015    -0.04300
C831        C  0.74029535  0.38448247  0.97380786    -0.01400
C832        C  0.69031464  0.39963612  0.97176980     0.03600
C833        C  0.67854527  0.46779013  0.56511138     0.38200
C834        C  0.76186610  0.35567961  0.94319425     0.38200
C835        C  0.66222085  0.38699965  0.93821664     0.36600
C836        C  0.77937906  0.43998692  0.56660366     0.36600
N837        N  0.63998351  0.37663083  0.91139579    -0.38200
N838        N  0.80344449  0.45087429  0.59234990    -0.38200
N839        N  0.77911596  0.33262360  0.91893570    -0.37600
N840        N  0.66274988  0.48947080  0.59066071    -0.37700
loop_ 
_geom_bond_atom_site_label_1 
_geom_bond_atom_site_label_2 
_geom_bond_distance 
_geom_bond_site_symmetry_2 
_ccdc_geom_bond_type 
C1            N6   1.359       .  A
C1          N422   1.360       .  A
C1          C410   1.485       .  S
N2            C3   1.358       .  A
N2          C421   1.360       .  A
C3            N4   1.359       .  A
C3          C393   1.486       .  S
N4            C5   1.359       .  A
C5          N426   1.360       .  A
C5          C802   1.491       .  S
N6          C425   1.360       .  A
C7            N8   1.358       .  A
C7           N12   1.360       .  A
C7          C365   1.482       .  S
N8            C9   1.359       .  A
C9           N10   1.358       .  A
C9          C351   1.479       .  S
N10          C11   1.358       .  A
C11          N12   1.360       .  A
C11         C337   1.484       .  S
C13          N14   1.358       .  A
C13          N18   1.357       .  A
C13         C326   1.480       .  S
N14          C15   1.360       .  A
C15          N16   1.360       .  A
C15         C295   1.487       .  S
N16          C17   1.359       .  A
C17          N18   1.358       .  A
C17         C732   1.481       .  S
C19          N20   1.358       .  A
C19          N24   1.359       .  A
C19         C281   1.492       .  S
N20          C21   1.357       .  A
C21          N22   1.359       .  A
C21         C253   1.491       .  S
N22          C23   1.359       .  A
C23          N24   1.359       .  A
C23         C267   1.487       .  S
Zn25         O30   2.024       .  S
Zn25         O34   2.009       .  S
Zn25         O41   2.033       .  S
Zn25        O449   1.966       .  S
Zn26         O31   2.027       .  S
Zn26         O33   2.022       .  S
Zn26         O37   2.003       .  S
Zn26         O29   1.966   1_455  S
Zn27         O32   2.027   1_455  S
Zn27         O35   2.029       .  S
Zn27         O38   2.032   1_455  S
Zn27        O449   1.964   1_445  S
Zn28         O36   2.023       .  S
Zn28         O39   2.017   1_545  S
Zn28         O40   2.019   1_545  S
Zn28         O29   1.963   1_545  S
O29        Zn445   1.966   1_554  S
O29        Zn447   1.964   1_664  S
O30         C462   1.273   1_655  A
O31          C43   1.273   1_565  A
O32          C44   1.276   1_545  A
O33          C42   1.273       .  A
O34          C44   1.273       .  A
O35         C463   1.273       .  A
O36          C45   1.274       .  A
O37          C46   1.272   1_455  A
O38         C465   1.275       .  A
O39          C46   1.274       .  A
O40          C47   1.273       .  A
O41         C467   1.275       .  A
C42         C239   1.481       .  S
C42         O450   1.273   1_454  A
C43         C225   1.483       .  S
C43         O455   1.273   1_554  A
C44          C70   1.468       .  S
C45         C396   1.509       .  S
C45         O458   1.275   1_554  A
C46          C66   1.464       .  S
C47         C323   1.494       .  S
C47         O461   1.275   1_554  A
Zn48         O53   2.018   1_455  S
Zn48         O57   2.009       .  S
Zn48         O64   2.008   1_455  S
Zn48         O52   1.960   1_445  S
Zn49         O54   2.009   1_545  S
Zn49         O56   2.012       .  S
Zn49         O60   2.007   1_545  S
Zn49         O52   1.957   1_545  S
Zn50         O55   2.013       .  S
Zn50         O58   2.009       .  S
Zn50         O61   2.016       .  S
Zn50         O52   1.958   1_455  S
Zn51         O59   2.038       .  S
Zn51         O62   2.030       .  S
Zn51         O63   2.024       .  S
Zn51         O52   1.962       .  S
O53          C65   1.272       .  A
O54          C66   1.272       .  A
O55          C67   1.273   1_565  A
O56          C65   1.272       .  A
O57          C67   1.273       .  A
O58          C66   1.273   1_455  A
O59          C68   1.276   1_655  A
O60          C69   1.272       .  A
O61          C68   1.273       .  A
O62          C69   1.274       .  A
O63          C70   1.275       .  A
O64          C70   1.272   1_545  A
C65         C354   1.482       .  S
C67         C197   1.483       .  S
C68         C211   1.494       .  S
C69         C284   1.516       .  S
C71          N72   1.359       .  A
C71          N76   1.359       .  A
C71         C183   1.482       .  S
N72          C73   1.359       .  A
C73          N74   1.360       .  A
C73         C662   1.489       .  S
N74          C75   1.359       .  A
C75          N76   1.359       .  A
C75         C379   1.490       .  S
C77          N78   1.360       .  A
C77          N82   1.361       .  A
C77         C172   1.490       .  S
N78          C79   1.360       .  A
C79          N80   1.358       .  A
C79         C340   1.485       .  S
N80          C81   1.358       .  A
C81          N82   1.360       .  A
C81         C214   1.482       .  S
C83          N84   1.358       .  A
C83          N88   1.362       .  A
C83         C228   1.490       .  S
N84          C85   1.357       .  A
C85          N86   1.358       .  A
C85         C298   1.486       .  S
N86          C87   1.358       .  A
C87          N88   1.360       .  A
C87         C155   1.481       .  S
C89          N90   1.357       .  A
C89          N94   1.356       .  A
C89         C200   1.474       .  S
N90          C91   1.358       .  A
C91          N92   1.358       .  A
C91         C256   1.488       .  S
N92          C93   1.358       .  A
C93          N94   1.358       .  A
C93         C144   1.485       .  S
Zn95        O100   2.034       .  S
Zn95        O104   2.035       .  S
Zn95        O111   2.031       .  S
Zn95         O99   1.967       .  S
Zn96        O101   2.019       .  S
Zn96        O103   2.016       .  S
Zn96        O107   2.016       .  S
Zn96        O519   1.961   1_554  S
Zn97        O102   2.011       .  S
Zn97        O105   2.025       .  S
Zn97        O108   2.017       .  S
Zn97         O99   1.961       .  S
Zn98        O106   2.025       .  S
Zn98        O109   2.012       .  S
Zn98        O110   2.017       .  S
Zn98        O519   1.963   1_554  S
O99        Zn516   1.961       .  S
O99        Zn518   1.963       .  S
O100        C112   1.276       .  A
O101        C533   1.273   1_554  A
O102        C114   1.272       .  A
O103        C532   1.273       .  A
O104        C114   1.275       .  A
O105        C113   1.274       .  A
O106        C535   1.274   1_554  A
O107        C116   1.272       .  A
O108        C115   1.273       .  A
O109        C116   1.271       .  A
O110        C537   1.273   1_554  A
O111        C117   1.275       .  A
C112        C407   1.509       .  S
C112        O523   1.273       .  A
C113        C309   1.487       .  S
C113        O521   1.273       .  A
C114        C136   1.462       .  S
C115        C186   1.485       .  S
C115        O526   1.274       .  A
C116        C140   1.457       .  S
C117        C158   1.491       .  S
C117        O530   1.274       .  A
Zn118       O123   2.014       .  S
Zn118       O127   2.032       .  S
Zn118       O134   2.028       .  S
Zn118       O122   1.965       .  S
Zn119       O124   2.027       .  S
Zn119       O126   2.026       .  S
Zn119       O130   2.038       .  S
Zn119       O122   1.966       .  S
Zn120       O125   2.029       .  S
Zn120       O128   2.020       .  S
Zn120       O131   2.021       .  S
Zn120       O122   1.964       .  S
Zn121       O129   2.018       .  S
Zn121       O132   2.032       .  S
Zn121       O133   2.002       .  S
Zn121       O122   1.962       .  S
O123        C135   1.273       .  A
O124        C136   1.275       .  A
O125        C137   1.275       .  A
O126        C135   1.274       .  A
O127        C137   1.274       .  A
O128        C136   1.273       .  A
O129        C138   1.273       .  A
O130        C139   1.275       .  A
O131        C138   1.273       .  A
O132        C139   1.274       .  A
O133        C140   1.271       .  A
O134        C140   1.274       .  A
C135        C141   1.513       .  S
C137        C368   1.502       .  S
C138        C270   1.478       .  S
C139        C169   1.490       .  S
C141        C142   1.428       .  A
C141        C146   1.428       .  A
C142        C143   1.411       .  A
C142        C147   1.452       .  S
C143        C144   1.408       .  A
C143        C150   1.454       .  S
C144        C145   1.409       .  A
C145        C146   1.414       .  A
C145        C148   1.453       .  S
C146        C149   1.452       .  S
C147        N154   1.157       .  T
C148        N153   1.157       .  T
C149        N151   1.158       .  T
C150        N152   1.157       .  T
C155        C160   1.410       .  A
C155        C576   1.410       .  A
C156        C157   1.412       .  A
C156        C575   1.410   1_554  A
C156        C161   1.451       .  S
C157        C578   1.416   1_554  A
C157        C164   1.451       .  S
C158        C159   1.416       .  A
C158        C577   1.416       .  A
C159        C160   1.413       .  A
C159        C162   1.450       .  S
C160        C163   1.451       .  S
C161        N168   1.157       .  T
C162        N167   1.157       .  T
C163        N165   1.157       .  T
C164        N166   1.157       .  T
C169        C170   1.413       .  A
C169        C174   1.414       .  A
C170        C171   1.414       .  A
C170        C175   1.451       .  S
C171        C172   1.414       .  A
C171        C178   1.451       .  S
C172        C173   1.414       .  A
C173        C174   1.415       .  A
C173        C176   1.451       .  S
C174        C177   1.451       .  S
C175        N182   1.157       .  T
C176        N181   1.157       .  T
C177        N179   1.157       .  T
C178        N180   1.157       .  T
C183        C184   1.411       .  A
C183        C608   1.412       .  A
C184        C185   1.411       .  A
C184        C189   1.451       .  S
C185        C186   1.414       .  A
C185        C192   1.452       .  S
C186        C607   1.414       .  A
C187        C188   1.413       .  A
C187        C606   1.414   1_554  A
C187        C190   1.451       .  S
C188        C603   1.412   1_554  A
C188        C191   1.451       .  S
C189        N196   1.157       .  T
C190        N195   1.157       .  T
C191        N193   1.157       .  T
C192        N194   1.157       .  T
C197        C198   1.415       .  A
C197        C202   1.415       .  A
C198        C199   1.409       .  A
C198        C203   1.452       .  S
C199        C200   1.409       .  A
C199        C206   1.451       .  S
C200        C201   1.410       .  A
C201        C202   1.410       .  A
C201        C204   1.452       .  S
C202        C205   1.451       .  S
C203        N210   1.157       .  T
C204        N209   1.157       .  T
C205        N207   1.157       .  T
C206        N208   1.157       .  T
C211        C212   1.419       .  A
C211        C216   1.417       .  A
C212        C213   1.413       .  A
C212        C217   1.452       .  S
C213        C214   1.409       .  A
C213        C220   1.451       .  S
C214        C215   1.410       .  A
C215        C216   1.413       .  A
C215        C218   1.451       .  S
C216        C219   1.451       .  S
C217        N224   1.157       .  T
C218        N223   1.157       .  T
C219        N221   1.157       .  T
C220        N222   1.157       .  T
C225        C230   1.411       .  A
C225        C646   1.410   1_554  A
C226        C227   1.412       .  A
C226        C645   1.410       .  A
C226        C231   1.451   1_545  S
C227        C228   1.417       .  A
C227        C234   1.451       .  S
C228        C649   1.415       .  A
C229        C230   1.414       .  A
C229        C648   1.415       .  A
C229        C232   1.451       .  S
C230        C233   1.451       .  S
C231        N238   1.157       .  T
C232        N237   1.157       .  T
C233        N235   1.157       .  T
C234        N236   1.157   1_545  T
C239        C240   1.410       .  A
C239        C664   1.410   1_554  A
C240        C241   1.412       .  A
C240        C245   1.451   1_455  S
C241        C242   1.416   1_554  A
C241        C248   1.451       .  S
C242        C493   1.489       .  S
C242        C663   1.415       .  A
C243        C244   1.412       .  A
C243        C662   1.415       .  A
C243        C246   1.451       .  S
C244        C659   1.410       .  A
C244        C247   1.451       .  S
C245        N252   1.157       .  T
C246        N251   1.157       .  T
C247        N249   1.157       .  T
C248        N250   1.157       .  T
C253        C254   1.416       .  A
C253        C258   1.415       .  A
C254        C255   1.412   1_565  A
C254        C259   1.452       .  S
C255        C256   1.414       .  A
C255        C262   1.452       .  S
C256        C257   1.414   1_545  A
C257        C258   1.411       .  A
C257        C260   1.452       .  S
C258        C261   1.452       .  S
C259        N266   1.157       .  T
C260        N265   1.157       .  T
C261        N263   1.157       .  T
C262        N264   1.157       .  T
C267        C268   1.416       .  A
C267        C272   1.416       .  A
C268        C269   1.411       .  A
C268        C273   1.451       .  S
C269        C270   1.410       .  A
C269        C276   1.451       .  S
C270        C271   1.410       .  A
C271        C272   1.412       .  A
C271        C274   1.452       .  S
C272        C275   1.451       .  S
C273        N280   1.157       .  T
C274        N279   1.157       .  T
C275        N277   1.157       .  T
C276        N278   1.157       .  T
C281        C282   1.411       .  A
C281        C286   1.411       .  A
C282        C283   1.414       .  A
C282        C287   1.454       .  S
C283        C284   1.428       .  A
C283        C290   1.452       .  S
C284        C285   1.429       .  A
C285        C286   1.413       .  A
C285        C288   1.453       .  S
C286        C289   1.454       .  S
C287        N294   1.157       .  T
C288        N293   1.157   1_565  T
C289        N291   1.158       .  T
C290        N292   1.158       .  T
C295        C300   1.413       .  A
C295        C716   1.414   1_554  A
C296        C297   1.412   1_565  A
C296        C715   1.414       .  A
C296        C301   1.451       .  S
C297        C298   1.413       .  A
C297        C304   1.451       .  S
C298        C719   1.413   1_545  A
C299        C300   1.411       .  A
C299        C718   1.413   1_565  A
C299        C302   1.452       .  S
C300        C303   1.449       .  S
C301        N308   1.157       .  T
C302        N307   1.157       .  T
C303        N305   1.156       .  T
C304        N306   1.157       .  T
C309        C310   1.415       .  A
C309        C734   1.414       .  A
C310        C311   1.412       .  A
C310        C315   1.452       .  S
C311        C312   1.411       .  A
C311        C318   1.451       .  S
C312        C437   1.481       .  S
C312        C733   1.411       .  A
C313        C314   1.412       .  A
C313        C732   1.411   1_556  A
C313        C316   1.451       .  S
C314        C729   1.414   1_556  A
C314        C317   1.451       .  S
C315        N322   1.158       .  T
C316        N321   1.157       .  T
C317        N319   1.157       .  T
C318        N320   1.157       .  T
C323        C324   1.418       .  A
C323        C748   1.418   1_554  A
C324        C325   1.412       .  A
C324        C329   1.452       .  S
C325        C326   1.409       .  A
C325        C332   1.452       .  S
C326        C747   1.410   1_554  A
C327        C328   1.414       .  A
C327        C746   1.410       .  A
C327        C330   1.452       .  S
C328        C743   1.418       .  A
C328        C331   1.451       .  S
C329        N336   1.157       .  T
C330        N335   1.157       .  T
C331        N333   1.158       .  T
C332        N334   1.157       .  T
C337        C338   1.413       .  A
C337        C342   1.412       .  A
C338        C339   1.412   1_655  A
C338        C343   1.452       .  S
C339        C340   1.413       .  A
C339        C346   1.451       .  S
C340        C341   1.413   1_455  A
C341        C342   1.413       .  A
C341        C344   1.451       .  S
C342        C345   1.450       .  S
C343        N350   1.157       .  T
C344        N349   1.157       .  T
C345        N347   1.157       .  T
C346        N348   1.157       .  T
C351        C352   1.411       .  A
C351        C356   1.412       .  A
C352        C353   1.410       .  A
C352        C357   1.451       .  S
C353        C354   1.413       .  A
C353        C360   1.452       .  S
C354        C355   1.413       .  A
C355        C356   1.412       .  A
C355        C358   1.451       .  S
C356        C359   1.451       .  S
C357        N364   1.157       .  T
C358        N363   1.157       .  T
C359        N361   1.157       .  T
C360        N362   1.157       .  T
C365        C366   1.409       .  A
C365        C370   1.408       .  A
C366        C367   1.415       .  A
C366        C371   1.452       .  S
C367        C368   1.421       .  A
C367        C374   1.451       .  S
C368        C369   1.421       .  A
C369        C370   1.413       .  A
C369        C372   1.451       .  S
C370        C373   1.452       .  S
C371        N378   1.157       .  T
C372        N377   1.157       .  T
C373        N375   1.157       .  T
C374        N376   1.157       .  T
C379        C380   1.413   1_455  A
C379        C804   1.415       .  A
C380        C381   1.413       .  A
C380        C385   1.452       .  S
C381        C382   1.415       .  A
C381        C388   1.451       .  S
C382        C425   1.491       .  S
C382        C803   1.414       .  A
C383        C384   1.413   1_655  A
C383        C802   1.414       .  A
C383        C386   1.452       .  S
C384        C799   1.415   1_554  A
C384        C387   1.451       .  S
C385        N392   1.157       .  T
C386        N391   1.157       .  T
C387        N389   1.158       .  T
C388        N390   1.158       .  T
C393        C398   1.409   1_554  A
C393        C814   1.409       .  A
C394        C395   1.415       .  A
C394        C813   1.409       .  A
C394        C399   1.452       .  S
C395        C816   1.425       .  A
C395        C402   1.452       .  S
C396        C397   1.424   1_554  A
C396        C815   1.425       .  A
C397        C398   1.413       .  A
C397        C400   1.451       .  S
C398        C401   1.453       .  S
C399        N406   1.158       .  T
C400        N405   1.158       .  T
C401        N403   1.157       .  T
C402        N404   1.157       .  T
C407        C412   1.424       .  A
C407        C828   1.426       .  A
C408        C409   1.414       .  A
C408        C827   1.426       .  A
C408        C413   1.453       .  S
C409        C830   1.408       .  A
C409        C416   1.451       .  S
C410        C411   1.409       .  A
C410        C829   1.408       .  A
C411        C412   1.413       .  A
C411        C414   1.453       .  S
C412        C415   1.451       .  S
C413        N420   1.157       .  T
C414        N419   1.157       .  T
C415        N417   1.158       .  T
C416        N418   1.158       .  T
C421        N426   1.359       .  A
C421        C830   1.485       .  S
N422        C423   1.358       .  A
C423        N424   1.359       .  A
C423        C813   1.486       .  S
N424        C425   1.359       .  A
C427        N428   1.358       .  A
C427        N432   1.359       .  A
C427        C785   1.482       .  S
N428        C429   1.359       .  A
C429        N430   1.358       .  A
C429        C771   1.479       .  S
N430        C431   1.358       .  A
C431        N432   1.360       .  A
C431        C757   1.484       .  S
C433        N434   1.358       .  A
C433        N438   1.357       .  A
C433        C746   1.480       .  S
N434        C435   1.360       .  A
C435        N436   1.360       .  A
C435        C715   1.487       .  S
N436        C437   1.359       .  A
C437        N438   1.358       .  A
C439        N440   1.358       .  A
C439        N444   1.359       .  A
C439        C701   1.492       .  S
N440        C441   1.357       .  A
C441        N442   1.359       .  A
C441        C673   1.491       .  S
N442        C443   1.359       .  A
C443        N444   1.359       .  A
C443        C687   1.487       .  S
Zn445       O450   2.024       .  S
Zn445       O454   2.009       .  S
Zn445       O461   2.033       .  S
Zn446       O451   2.027       .  S
Zn446       O453   2.022       .  S
Zn446       O457   2.004       .  S
Zn446       O449   1.966   1_455  S
Zn447       O452   2.027   1_455  S
Zn447       O455   2.029       .  S
Zn447       O458   2.032   1_455  S
Zn448       O456   2.023       .  S
Zn448       O459   2.017   1_545  S
Zn448       O460   2.020   1_545  S
Zn448       O449   1.963   1_545  S
O451        C463   1.273   1_565  A
O452        C464   1.276   1_545  A
O453        C462   1.273       .  A
O454        C464   1.273       .  A
O456        C465   1.274       .  A
O457        C466   1.272   1_455  A
O459        C466   1.274       .  A
O460        C467   1.273       .  A
C462        C659   1.481       .  S
C463        C645   1.483       .  S
C464        C490   1.468       .  S
C465        C816   1.509       .  S
C466        C486   1.464       .  S
C467        C743   1.494       .  S
Zn468       O473   2.018   1_455  S
Zn468       O477   2.009       .  S
Zn468       O484   2.008   1_455  S
Zn468       O472   1.960   1_445  S
Zn469       O474   2.009   1_545  S
Zn469       O476   2.012       .  S
Zn469       O480   2.008   1_545  S
Zn469       O472   1.957   1_545  S
Zn470       O475   2.013       .  S
Zn470       O478   2.009       .  S
Zn470       O481   2.016       .  S
Zn470       O472   1.958   1_455  S
Zn471       O479   2.037       .  S
Zn471       O482   2.030       .  S
Zn471       O483   2.024       .  S
Zn471       O472   1.962       .  S
O473        C485   1.272       .  A
O474        C486   1.272       .  A
O475        C487   1.273   1_565  A
O476        C485   1.272       .  A
O477        C487   1.273       .  A
O478        C486   1.273   1_455  A
O479        C488   1.276   1_655  A
O480        C489   1.272       .  A
O481        C488   1.273       .  A
O482        C489   1.274       .  A
O483        C490   1.275       .  A
O484        C490   1.272   1_545  A
C485        C774   1.482       .  S
C487        C617   1.483       .  S
C488        C631   1.494       .  S
C489        C704   1.516       .  S
C491        N492   1.359       .  A
C491        N496   1.359       .  A
C491        C603   1.482       .  S
N492        C493   1.359       .  A
C493        N494   1.360       .  A
N494        C495   1.359       .  A
C495        N496   1.359       .  A
C495        C799   1.490       .  S
C497        N498   1.360       .  A
C497        N502   1.361       .  A
C497        C592   1.490       .  S
N498        C499   1.360       .  A
C499        N500   1.358       .  A
C499        C760   1.484       .  S
N500        C501   1.358       .  A
C501        N502   1.360       .  A
C501        C634   1.481       .  S
C503        N504   1.358       .  A
C503        N508   1.362       .  A
C503        C648   1.490       .  S
N504        C505   1.357       .  A
C505        N506   1.358       .  A
C505        C718   1.486       .  S
N506        C507   1.358       .  A
C507        N508   1.360       .  A
C507        C575   1.481   1_554  S
C509        N510   1.357       .  A
C509        N514   1.356       .  A
C509        C620   1.474       .  S
N510        C511   1.358       .  A
C511        N512   1.358       .  A
C511        C676   1.488       .  S
N512        C513   1.358       .  A
C513        N514   1.358       .  A
C513        C564   1.485       .  S
Zn515       O520   2.034       .  S
Zn515       O524   2.035       .  S
Zn515       O531   2.031       .  S
Zn515       O519   1.967       .  S
Zn516       O521   2.019       .  S
Zn516       O523   2.016       .  S
Zn516       O527   2.016       .  S
Zn517       O522   2.011       .  S
Zn517       O525   2.025       .  S
Zn517       O528   2.017       .  S
Zn517       O519   1.961       .  S
Zn518       O526   2.025       .  S
Zn518       O529   2.012       .  S
Zn518       O530   2.017       .  S
O520        C532   1.276   1_556  A
O522        C534   1.272       .  A
O524        C534   1.275       .  A
O525        C533   1.274       .  A
O527        C536   1.272       .  A
O528        C535   1.273       .  A
O529        C536   1.271       .  A
O531        C537   1.275       .  A
C532        C827   1.509       .  S
C533        C729   1.487   1_556  S
C534        C556   1.462       .  S
C535        C606   1.485       .  S
C536        C560   1.457       .  S
C537        C578   1.491       .  S
Zn538       O543   2.014       .  S
Zn538       O547   2.032       .  S
Zn538       O554   2.028       .  S
Zn538       O542   1.965       .  S
Zn539       O544   2.027       .  S
Zn539       O546   2.026       .  S
Zn539       O550   2.038       .  S
Zn539       O542   1.966       .  S
Zn540       O545   2.029       .  S
Zn540       O548   2.020       .  S
Zn540       O551   2.021       .  S
Zn540       O542   1.964       .  S
Zn541       O549   2.018       .  S
Zn541       O552   2.032       .  S
Zn541       O553   2.002       .  S
Zn541       O542   1.962       .  S
O543        C555   1.273       .  A
O544        C556   1.275       .  A
O545        C557   1.275       .  A
O546        C555   1.274       .  A
O547        C557   1.274       .  A
O548        C556   1.273       .  A
O549        C558   1.273       .  A
O550        C559   1.275       .  A
O551        C558   1.273       .  A
O552        C559   1.274       .  A
O553        C560   1.271       .  A
O554        C560   1.274       .  A
C555        C561   1.513       .  S
C557        C788   1.502       .  S
C558        C690   1.478       .  S
C559        C589   1.490       .  S
C561        C562   1.428       .  A
C561        C566   1.428       .  A
C562        C563   1.411       .  A
C562        C567   1.452       .  S
C563        C564   1.408       .  A
C563        C570   1.454       .  S
C564        C565   1.409       .  A
C565        C566   1.414       .  A
C565        C568   1.453       .  S
C566        C569   1.452       .  S
C567        N574   1.157       .  T
C568        N573   1.157       .  T
C569        N571   1.158       .  T
C570        N572   1.157       .  T
C575        C580   1.410       .  A
C576        C577   1.412       .  A
C576        C581   1.451       .  S
C577        C584   1.451       .  S
C578        C579   1.416       .  A
C579        C580   1.413       .  A
C579        C582   1.450       .  S
C580        C583   1.451       .  S
C581        N588   1.157       .  T
C582        N587   1.157       .  T
C583        N585   1.157       .  T
C584        N586   1.157       .  T
C589        C590   1.413       .  A
C589        C594   1.414       .  A
C590        C591   1.414       .  A
C590        C595   1.451       .  S
C591        C592   1.414       .  A
C591        C598   1.451       .  S
C592        C593   1.414       .  A
C593        C594   1.415       .  A
C593        C596   1.451       .  S
C594        C597   1.451       .  S
C595        N602   1.157       .  T
C596        N601   1.157       .  T
C597        N599   1.157       .  T
C598        N600   1.157       .  T
C603        C604   1.411       .  A
C604        C605   1.411       .  A
C604        C609   1.451       .  S
C605        C606   1.414       .  A
C605        C612   1.452       .  S
C607        C608   1.413       .  A
C607        C610   1.451       .  S
C608        C611   1.451       .  S
C609        N616   1.157       .  T
C610        N615   1.157       .  T
C611        N613   1.157       .  T
C612        N614   1.157       .  T
C617        C618   1.415       .  A
C617        C622   1.415       .  A
C618        C619   1.409       .  A
C618        C623   1.452       .  S
C619        C620   1.409       .  A
C619        C626   1.451       .  S
C620        C621   1.410       .  A
C621        C622   1.410       .  A
C621        C624   1.452       .  S
C622        C625   1.451       .  S
C623        N630   1.157       .  T
C624        N629   1.157       .  T
C625        N627   1.157       .  T
C626        N628   1.157       .  T
C631        C632   1.419       .  A
C631        C636   1.417       .  A
C632        C633   1.413       .  A
C632        C637   1.452       .  S
C633        C634   1.409       .  A
C633        C640   1.451       .  S
C634        C635   1.410       .  A
C635        C636   1.413       .  A
C635        C638   1.451       .  S
C636        C639   1.451       .  S
C637        N644   1.157       .  T
C638        N643   1.157       .  T
C639        N641   1.157       .  T
C640        N642   1.157       .  T
C645        C650   1.411       .  A
C646        C647   1.412       .  A
C646        C651   1.451   1_545  S
C647        C648   1.417   1_556  A
C647        C654   1.451       .  S
C649        C650   1.414       .  A
C649        C652   1.451       .  S
C650        C653   1.451       .  S
C651        N658   1.157       .  T
C652        N657   1.157       .  T
C653        N655   1.157       .  T
C654        N656   1.157   1_545  T
C659        C660   1.410       .  A
C660        C661   1.412       .  A
C660        C665   1.451   1_455  S
C661        C662   1.416       .  A
C661        C668   1.451       .  S
C663        C664   1.412       .  A
C663        C666   1.451       .  S
C664        C667   1.451       .  S
C665        N672   1.157       .  T
C666        N671   1.157       .  T
C667        N669   1.157       .  T
C668        N670   1.157       .  T
C673        C674   1.416       .  A
C673        C678   1.415       .  A
C674        C675   1.412   1_565  A
C674        C679   1.452       .  S
C675        C676   1.414       .  A
C675        C682   1.452       .  S
C676        C677   1.414   1_545  A
C677        C678   1.411       .  A
C677        C680   1.452       .  S
C678        C681   1.452       .  S
C679        N686   1.157       .  T
C680        N685   1.157       .  T
C681        N683   1.157       .  T
C682        N684   1.157       .  T
C687        C688   1.416       .  A
C687        C692   1.416       .  A
C688        C689   1.411       .  A
C688        C693   1.451       .  S
C689        C690   1.410       .  A
C689        C696   1.451       .  S
C690        C691   1.410       .  A
C691        C692   1.412       .  A
C691        C694   1.452       .  S
C692        C695   1.451       .  S
C693        N700   1.157       .  T
C694        N699   1.157       .  T
C695        N697   1.157       .  T
C696        N698   1.157       .  T
C701        C702   1.411       .  A
C701        C706   1.411       .  A
C702        C703   1.414       .  A
C702        C707   1.454       .  S
C703        C704   1.428       .  A
C703        C710   1.452       .  S
C704        C705   1.429       .  A
C705        C706   1.413       .  A
C705        C708   1.453       .  S
C706        C709   1.454       .  S
C707        N714   1.157       .  T
C708        N713   1.157   1_565  T
C709        N711   1.158       .  T
C710        N712   1.158       .  T
C715        C720   1.413       .  A
C716        C717   1.412   1_565  A
C716        C721   1.451       .  S
C717        C718   1.413   1_556  A
C717        C724   1.451       .  S
C719        C720   1.411       .  A
C719        C722   1.452       .  S
C720        C723   1.449       .  S
C721        N728   1.157       .  T
C722        N727   1.157       .  T
C723        N725   1.156       .  T
C724        N726   1.157       .  T
C729        C730   1.415       .  A
C730        C731   1.412       .  A
C730        C735   1.452       .  S
C731        C732   1.411       .  A
C731        C738   1.451       .  S
C733        C734   1.412       .  A
C733        C736   1.451       .  S
C734        C737   1.451       .  S
C735        N742   1.158       .  T
C736        N741   1.157       .  T
C737        N739   1.157       .  T
C738        N740   1.157       .  T
C743        C744   1.418       .  A
C744        C745   1.412       .  A
C744        C749   1.452       .  S
C745        C746   1.409       .  A
C745        C752   1.452       .  S
C747        C748   1.414       .  A
C747        C750   1.452       .  S
C748        C751   1.451       .  S
C749        N756   1.157       .  T
C750        N755   1.157       .  T
C751        N753   1.158       .  T
C752        N754   1.157       .  T
C757        C758   1.413       .  A
C757        C762   1.412       .  A
C758        C759   1.412   1_655  A
C758        C763   1.452       .  S
C759        C760   1.413       .  A
C759        C766   1.451       .  S
C760        C761   1.413   1_455  A
C761        C762   1.413       .  A
C761        C764   1.451       .  S
C762        C765   1.450       .  S
C763        N770   1.157       .  T
C764        N769   1.157       .  T
C765        N767   1.157       .  T
C766        N768   1.157       .  T
C771        C772   1.411       .  A
C771        C776   1.412       .  A
C772        C773   1.410       .  A
C772        C777   1.451       .  S
C773        C774   1.413       .  A
C773        C780   1.452       .  S
C774        C775   1.413       .  A
C775        C776   1.412       .  A
C775        C778   1.451       .  S
C776        C779   1.451       .  S
C777        N784   1.157       .  T
C778        N783   1.157       .  T
C779        N781   1.157       .  T
C780        N782   1.157       .  T
C785        C786   1.409       .  A
C785        C790   1.408       .  A
C786        C787   1.415       .  A
C786        C791   1.452       .  S
C787        C788   1.421       .  A
C787        C794   1.451       .  S
C788        C789   1.421       .  A
C789        C790   1.413       .  A
C789        C792   1.451       .  S
C790        C793   1.452       .  S
C791        N798   1.157       .  T
C792        N797   1.157       .  T
C793        N795   1.157       .  T
C794        N796   1.157       .  T
C799        C800   1.413   1_455  A
C800        C801   1.413       .  A
C800        C805   1.452       .  S
C801        C802   1.415   1_556  A
C801        C808   1.451       .  S
C803        C804   1.413   1_655  A
C803        C806   1.452       .  S
C804        C807   1.451       .  S
C805        N812   1.157       .  T
C806        N811   1.157       .  T
C807        N809   1.158       .  T
C808        N810   1.158       .  T
C813        C818   1.409       .  A
C814        C815   1.415       .  A
C814        C819   1.452       .  S
C815        C822   1.452       .  S
C816        C817   1.424       .  A
C817        C818   1.413       .  A
C817        C820   1.451       .  S
C818        C821   1.453       .  S
C819        N826   1.158       .  T
C820        N825   1.158       .  T
C821        N823   1.157       .  T
C822        N824   1.157       .  T
C827        C832   1.424   1_554  A
C828        C829   1.414       .  A
C828        C833   1.453       .  S
C829        C836   1.451       .  S
C830        C831   1.409   1_554  A
C831        C832   1.413       .  A
C831        C834   1.453       .  S
C832        C835   1.451       .  S
C833        N840   1.157       .  T
C834        N839   1.157       .  T
C835        N837   1.158       .  T
C836        N838   1.158       .  T
