geometry optimzed in LAMMPS
_audit_creation_date              2020-11-30 
_audit_creation_method            'lammps2cif' 
_symmetry_space_group_name_H-M    'P1' 
_symmetry_Int_Tables_number       1 
_symmetry_cell_setting            triclinic 
loop_ 
_symmetry_equiv_pos_as_xyz 
  x,y,z 
_cell_length_a                    59.75514183 
_cell_length_b                    59.75254519483821 
_cell_length_c                    46.73406879632759 
_cell_angle_alpha                 89.99850452641756 
_cell_angle_beta                  90.0707320526326 
_cell_angle_gamma                 119.91923069638162 
loop_ 
_atom_site_label 
_atom_site_type_symbol 
_atom_site_fract_x 
_atom_site_fract_y 
_atom_site_fract_z 
_atom_site_charge 
C1          C  0.44146440  0.22999130  0.12957075     0.80400
N2          N  0.44300306  0.22142790  0.10308325    -0.77900
C3          C  0.44782068  0.20162601  0.10008819     0.82800
N4          N  0.45103045  0.19039421  0.12387615    -0.77900
C5          C  0.44909543  0.19859507  0.15032857     0.82900
N6          N  0.44448143  0.21849080  0.15319289    -0.79600
C7          C  0.27724205  0.86268962  0.37902625     0.80400
N8          N  0.26714198  0.85129338  0.35343962    -0.77900
C9          C  0.24493741  0.82817383  0.35265306     0.82800
N10         N  0.23322464  0.81621766  0.37736474    -0.77900
C11         C  0.24329025  0.82743398  0.40295490     0.82900
N12         N  0.26526630  0.85075144  0.40369306    -0.79600
C13         C  0.86979724  0.19909529  0.13605754     0.80400
N14         N  0.87955717  0.21371637  0.11206924    -0.77900
C15         C  0.90019314  0.23798967  0.11332024     0.82800
N16         N  0.91162132  0.24744779  0.13893879    -0.77900
C17         C  0.90240162  0.23329858  0.16314743     0.82900
N18         N  0.88128446  0.20928554  0.16166208    -0.79600
C19         C  0.68829860  0.81582361  0.37750781     0.80400
N20         N  0.68741848  0.82565422  0.35150516    -0.77900
C21         C  0.68541615  0.84730263  0.34990170     0.82800
N22         N  0.68424179  0.85894501  0.37427210    -0.77900
C23         C  0.68525713  0.84930434  0.40013890     0.82900
N24         N  0.68735396  0.82778551  0.40179395    -0.79600
C25         C  0.90251023  0.65682123  0.11958218     0.80400
N26         N  0.88812784  0.65328250  0.09566422    -0.77900
C27         C  0.86464586  0.65155632  0.09774799     0.82800
N28         N  0.85549356  0.65309221  0.12376337    -0.77900
C29         C  0.86968263  0.65661604  0.14772676     0.82900
N30         N  0.89318375  0.65834258  0.14563725    -0.79600
C31         C  0.23762347  0.39796417  0.37049683     0.80400
N32         N  0.25122281  0.40042912  0.34613577    -0.77900
C33         C  0.27536048  0.40384815  0.34761826     0.82800
N34         N  0.28610588  0.40472445  0.37341704    -0.77900
C35         C  0.27260146  0.40157573  0.39792336     0.82900
N36         N  0.24859775  0.39855704  0.39627339    -0.79600
O37         O  0.97147293  0.34962789  0.35161899    -0.78300
C38         C  0.98400978  0.35799238  0.44538771     0.82700
O39         O  0.96588524  0.42407359  0.38247121    -0.79500
O40         O  0.04555270  0.44068866  0.43789642    -0.80900
O41         O  0.06092684  0.40531007  0.35571106    -0.80700
O42         O  0.00448092  0.37391594  0.32272385    -0.79400
Zn43       Zn  0.97662289  0.37291665  0.38527770     1.55700
O44         O  0.06110761  0.40077107  0.40323157    -0.80800
Cd45       Cd  0.02726845  0.40577800  0.34726963     1.59700
Cd46       Cd  0.00488533  0.43557421  0.38445718     1.59600
O47         O  0.03526714  0.43767967  0.32250653    -0.80700
O48         O  0.00950112  0.40461764  0.38374267    -1.91300
Cd49       Cd  0.03041903  0.40518365  0.41743095     1.59900
O50         O  0.02244470  0.45972017  0.34948655    -0.80700
O51         O  0.00717891  0.37675976  0.44746497    -0.79400
C52         C  0.94620119  0.40144222  0.38184403     0.83200
C53         C  0.98342321  0.35330485  0.32799647     0.82800
O54         O  0.97122053  0.35388114  0.42230890    -0.78300
C55         C  0.07092613  0.40235234  0.37848754     0.83600
O56         O  0.94840943  0.38138931  0.38328216    -0.78400
C57         C  0.03274318  0.45737391  0.32663839     0.83800
C58         C  0.03909285  0.45808152  0.43792112     0.84100
O59         O  0.02212178  0.45734508  0.42073712    -0.80800
O60         O  0.17410734  0.71304072  0.09480595    -0.78300
C61         C  0.15793449  0.70899622  0.18812489     0.82700
O62         O  0.18209821  0.64238681  0.13423421    -0.79500
O63         O  0.10161570  0.62378397  0.18707949    -0.80900
O64         O  0.08250762  0.65588962  0.10326368    -0.80700
O65         O  0.13939966  0.68882731  0.06812392    -0.79400
Zn66       Zn  0.16897085  0.69186973  0.13077964     1.55700
O67         O  0.08184855  0.65918379  0.15065887    -0.80800
Cd68       Cd  0.11733056  0.65744894  0.09458161     1.59700
Cd69       Cd  0.14265253  0.62979828  0.13340692     1.59600
O70         O  0.10925288  0.62441599  0.07229932    -0.80700
O71         O  0.13619879  0.65963321  0.13073469    -1.91300
Cd72       Cd  0.11431300  0.65795892  0.16405548     1.59900
O73         O  0.12651949  0.60571321  0.09858624    -0.80700
O74         O  0.13547165  0.68928490  0.19068354    -0.79400
C75         C  0.20144404  0.66520568  0.13260011     0.83200
C76         C  0.16141090  0.70899150  0.07158803     0.82800
O77         O  0.17198906  0.71230679  0.16625211    -0.78300
C78         C  0.07171434  0.65740765  0.12614301     0.83600
O79         O  0.19864900  0.68495541  0.13139520    -0.78400
C80         C  0.11389015  0.60607905  0.07679118     0.83800
C81         C  0.10765428  0.60609913  0.18619696     0.84100
O82         O  0.12395319  0.60650591  0.16833325    -0.80800
O83         O  0.49355912  0.12736090  0.33703814    -0.78300
C84         C  0.48652792  0.12264432  0.43179973     0.82700
O85         O  0.57149742  0.13372383  0.37164713    -0.79500
O86         O  0.51252911  0.06334521  0.43672440    -0.80900
O87         O  0.45626876  0.03708979  0.35800732    -0.80700
O88         O  0.47666723  0.08875052  0.31641216    -0.79400
Zn89       Zn  0.51036585  0.12485251  0.37356131     1.55700
O90         O  0.45514859  0.04352085  0.40491256    -0.80800
Cd91       Cd  0.48863542  0.06937774  0.34341041     1.59700
Cd92       Cd  0.54354840  0.09510826  0.37595523     1.59600
O93         O  0.51021496  0.05817677  0.31864261    -0.80700
O94         O  0.50842187  0.09157733  0.37662503    -1.91300
Cd95       Cd  0.49081277  0.07549294  0.41349690     1.59900
O96         O  0.54786888  0.07587966  0.34148831    -0.80700
O97         O  0.48493875  0.10115395  0.43826265    -0.79400
C98         C  0.56940801  0.15393185  0.37084836     0.83200
C99         C  0.48096981  0.11187001  0.31674905     0.82800
O100        O  0.49452470  0.13307945  0.40740165    -0.78300
C101        C  0.44509711  0.03041922  0.38222759     0.83600
O102        O  0.54744741  0.15240631  0.37243707    -0.78400
C103        C  0.53329788  0.06254195  0.32093310     0.83800
C104        C  0.53505317  0.06629901  0.43345859     0.84100
O105        O  0.54943791  0.07862798  0.41230149    -0.80800
O106        O  0.65301621  0.92928023  0.08831020    -0.78300
C107        C  0.66128187  0.93763760  0.18266940     0.82700
O108        O  0.57539356  0.92165544  0.12319120    -0.79500
O109        O  0.63569134  0.99668357  0.18533867    -0.80900
O110        O  0.69113765  0.02012241  0.10406036    -0.80700
O111        O  0.66830980  0.96636312  0.06535669    -0.79400
Zn112      Zn  0.63674778  0.93257205  0.12428784     1.55700
O113        O  0.69225627  0.01719184  0.15168306    -0.80800
Cd114      Cd  0.65740162  0.98703823  0.09196414     1.59700
Cd115      Cd  0.60311952  0.96039710  0.12770642     1.59600
O116        O  0.63359976  0.99701762  0.06890177    -0.80700
O117        O  0.63885592  0.96594075  0.12642307    -1.91300
Cd118      Cd  0.65745766  0.98457632  0.16197068     1.59900
O119        O  0.59795654  0.98061914  0.09528172    -0.80700
O120        O  0.66434127  0.96005753  0.18728367    -0.79400
C121        C  0.57810721  0.90184485  0.12160444     0.83200
C122        C  0.66456145  0.94346942  0.06688427     0.82800
O123        O  0.65212885  0.92569864  0.15918439    -0.78300
C124        C  0.70220565  0.02868756  0.12815381     0.83600
O125        O  0.60026002  0.90381350  0.12237676    -0.78400
C126        C  0.61094082  0.99332682  0.07361551     0.83800
C127        C  0.61195474  0.99046209  0.18388627     0.84100
O128        O  0.59690515  0.97513087  0.16476551    -0.80800
C129        C  0.71867536  0.33578838  0.36366944     0.80400
N130        N  0.71393484  0.35573533  0.36245819    -0.77900
C131        C  0.73387403  0.38040441  0.36162361     0.82800
N132        N  0.75847769  0.38496863  0.36245320    -0.77900
C133        C  0.76334239  0.36515425  0.36396171     0.82900
N134        N  0.74336265  0.34052816  0.36434414    -0.79600
C135        C  0.42695735  0.72059840  0.11887685     0.80400
N136        N  0.40241198  0.71608866  0.12092679    -0.77900
C137        C  0.38221125  0.69155443  0.12269381     0.82800
N138        N  0.38686018  0.67142175  0.12191019    -0.77900
C139        C  0.41144568  0.67582787  0.11939073     0.82900
N140        N  0.43132641  0.70045037  0.11815946    -0.79600
O141        O  0.38930443  0.44910203  0.08858228    -0.78300
C142        C  0.39732076  0.44464217  0.18152857     0.82700
O143        O  0.46633705  0.52717534  0.11331944    -0.79500
O144        O  0.47998803  0.46880596  0.17735527    -0.80900
O145        O  0.43556351  0.40509046  0.10109403    -0.80700
O146        O  0.40989125  0.43396615  0.06201579    -0.79400
Zn147      Zn  0.41347402  0.46742000  0.12166969     1.55700
O148        O  0.44342455  0.41045800  0.14779027    -0.80800
Cd149      Cd  0.44087130  0.44052911  0.08751075     1.59700
Cd150      Cd  0.47494806  0.49754994  0.11658939     1.59600
O151        O  0.47431483  0.45851298  0.06285485    -0.80700
O152        O  0.44334162  0.46277677  0.12063770    -1.91300
Cd153      Cd  0.44534803  0.44547474  0.15646275     1.59900
O154        O  0.49582801  0.49828975  0.08112815    -0.80700
O155        O  0.41505568  0.43874979  0.18362725    -0.79400
C156        C  0.44457056  0.52618368  0.11480937     0.83200
C157        C  0.39112165  0.43801918  0.06611806     0.82800
O158        O  0.39502694  0.45550980  0.15918539    -0.78300
C159        C  0.43851421  0.39685460  0.12517328     0.83600
O160        O  0.42371580  0.50485680  0.11821372    -0.78400
C161        C  0.49361833  0.48142224  0.06292447     0.83800
C162        C  0.49857163  0.49156811  0.17261786     0.84100
O163        O  0.49898670  0.50498636  0.15125363    -0.80800
O164        O  0.75229187  0.60828423  0.33548051    -0.78300
C165        C  0.74386220  0.61181671  0.43081326     0.82700
O166        O  0.68104967  0.52785124  0.36459913    -0.79500
O167        O  0.65814647  0.58016045  0.42628728    -0.80900
O168        O  0.69991739  0.64447777  0.35110643    -0.80700
O169        O  0.72927561  0.62102351  0.30997000    -0.79400
Zn170      Zn  0.73012474  0.59029388  0.37020813     1.55700
O171        O  0.69465559  0.63963951  0.39839552    -0.80800
Cd172      Cd  0.69758728  0.61082869  0.33654730     1.59700
Cd173      Cd  0.66785903  0.55391466  0.36633407     1.59600
O174        O  0.66358807  0.59034980  0.31309041    -0.80700
O175        O  0.69747344  0.58988025  0.36982615    -1.91300
Cd176      Cd  0.69299899  0.60462839  0.40632787     1.59900
O177        O  0.64749399  0.55026209  0.32943853    -0.80700
O178        O  0.72204633  0.61029361  0.43465779    -0.79400
C179        C  0.70388976  0.53136110  0.36595752     0.83200
C180        C  0.74931044  0.61883366  0.31320146     0.82800
O181        O  0.74988073  0.60686722  0.40643893    -0.78300
C182        C  0.69773070  0.65260199  0.37557482     0.83600
O183        O  0.72354653  0.55378515  0.36890086    -0.78400
C184        C  0.64675278  0.56636826  0.31217742     0.83800
C185        C  0.64041775  0.55704418  0.42128700     0.84100
O186        O  0.64160827  0.54446672  0.39983117    -0.80800
C187        C  0.62539824  0.55656754  0.29084805     0.01500
C188        C  0.62962953  0.56659808  0.26263039     0.04300
C189        C  0.60943516  0.55612930  0.24241972    -0.11800
C190        C  0.58513802  0.53534446  0.24998378     0.23600
C191        C  0.58085210  0.52511379  0.27779783    -0.12300
C192        C  0.60049606  0.53624063  0.29847608     0.05000
C193        C  0.56352526  0.52485743  0.22922432     0.27400
C194        C  0.54462733  0.53235939  0.23102693    -0.13000
C195        C  0.52324175  0.52135317  0.21250659     0.05500
C196        C  0.52068481  0.50278051  0.19227941    -0.09000
C197        C  0.53968545  0.49547565  0.19022715     0.06300
C198        C  0.56115419  0.50655454  0.20865685    -0.13300
Br199      Br  0.54788575  0.49546275  0.28731078    -0.05400
Br200      Br  0.66292044  0.59424356  0.25074118     0.00200
Br201      Br  0.49710970  0.53122391  0.21518214     0.00700
Br202      Br  0.58722802  0.49659545  0.20594577    -0.03700
Br203      Br  0.59192729  0.52475932  0.33770665     0.00800
Br204      Br  0.61495746  0.56996748  0.20407857    -0.03000
Br205      Br  0.54798990  0.55752000  0.25915123    -0.03900
Br206      Br  0.53638460  0.47052426  0.16189408     0.00100
C207        C  0.51436896  0.48900003  0.04142944     0.01500
C208        C  0.50852350  0.48539878  0.01190767     0.04300
C209        C  0.52953437  0.49589309  0.49238259    -0.11800
C210        C  0.55455347  0.50856722  0.00067048     0.23600
C211        C  0.56042462  0.51118838  0.03009305    -0.12300
C212        C  0.54042124  0.50123567  0.05041520     0.05000
C213        C  0.57672432  0.52084793  0.48068466     0.27400
C214        C  0.58884092  0.50733591  0.47081838    -0.13000
C215        C  0.60946872  0.51906945  0.45134144     0.05500
C216        C  0.61802491  0.54439735  0.44121903    -0.09000
C217        C  0.60536808  0.55770405  0.45083333     0.06300
C218        C  0.58493950  0.54599404  0.47065566    -0.13300
Br219      Br  0.59600392  0.52870389  0.04247214    -0.05400
Br220      Br  0.47315975  0.46878651  0.99897801     0.00200
Br221      Br  0.62667836  0.50056895  0.44017864     0.00700
Br222      Br  0.56803828  0.56429765  0.48436172    -0.03700
Br223      Br  0.54888192  0.50360021  0.09059498     0.00800
Br224      Br  0.52207104  0.49172918  0.45194428    -0.03000
Br225      Br  0.57716451  0.47270856  0.48441412    -0.03900
Br226      Br  0.61487726  0.59146756  0.43602440     0.00100
C227        C  0.44300553  0.55013453  0.11261158     0.01500
C228        C  0.42463039  0.55081997  0.09408712     0.04300
C229        C  0.42050912  0.57203234  0.09457732    -0.11800
C230        C  0.43521888  0.59305039  0.11292292     0.23600
C231        C  0.45471342  0.59322061  0.13006228    -0.12300
C232        C  0.45840214  0.57168437  0.13024810     0.05000
C233        C  0.42948472  0.61451147  0.11485527     0.27400
C234        C  0.43968028  0.63450634  0.09449592    -0.13000
C235        C  0.43312527  0.65408281  0.09546918     0.05500
C236        C  0.41692217  0.65423751  0.11747280    -0.09000
C237        C  0.40724263  0.63446631  0.13828549     0.06300
C238        C  0.41328294  0.61452080  0.13674230    -0.13300
Br239      Br  0.47596126  0.62292100  0.15364843    -0.05400
Br240      Br  0.40554006  0.52307413  0.06723434     0.00200
Br241      Br  0.44562761  0.67994796  0.06566525     0.00700
Br242      Br  0.39962977  0.58718989  0.16480895    -0.03700
Br243      Br  0.48327879  0.57122507  0.15625532     0.00800
Br244      Br  0.39425317  0.57214716  0.07056498    -0.03000
Br245      Br  0.46292839  0.63510528  0.06546432    -0.03900
Br246      Br  0.38707294  0.63536852  0.17003545     0.00100
C247        C  0.72906278  0.40229235  0.36039049     0.01500
C248        C  0.71237194  0.40301677  0.33941923     0.04300
C249        C  0.70801101  0.42405746  0.33843985    -0.11800
C250        C  0.72098474  0.44474191  0.35768029     0.23600
C251        C  0.73804051  0.44432698  0.37815784    -0.12300
C252        C  0.74166147  0.42291720  0.37996856     0.05000
C253        C  0.71543266  0.46620281  0.35804979     0.27400
C254        C  0.72994766  0.48825497  0.34109035    -0.13000
C255        C  0.72614719  0.50958691  0.34359156     0.05500
C256        C  0.70784512  0.50890551  0.36327243    -0.09000
C257        C  0.69330109  0.48661139  0.38009091     0.06300
C258        C  0.69688255  0.46522934  0.37722612    -0.13300
Br259      Br  0.75601234  0.47304378  0.40415235    -0.05400
Br260      Br  0.69620003  0.37587699  0.31123731     0.00200
Br261      Br  0.74571923  0.53936568  0.31943202     0.00700
Br262      Br  0.67690785  0.43462284  0.40012150    -0.03700
Br263      Br  0.76242269  0.42127417  0.41076066     0.00800
Br264      Br  0.68394131  0.42449045  0.31119207    -0.03000
Br265      Br  0.75522747  0.48917978  0.31474749    -0.03900
Br266      Br  0.67002610  0.48579290  0.40890157     0.00100
C267        C  0.44896263  0.74720628  0.11812287     0.01500
C268        C  0.45079762  0.76440507  0.09635378     0.04300
C269        C  0.47208437  0.78964573  0.09562011    -0.11800
C270        C  0.49164333  0.79767970  0.11649952     0.23600
C271        C  0.49000433  0.78036983  0.13797623    -0.12300
C272        C  0.46858774  0.75528133  0.13897716     0.05000
C273        C  0.51333657  0.82468904  0.11677490     0.27400
C274        C  0.53435166  0.83245424  0.09801197    -0.13000
C275        C  0.55499989  0.85805347  0.09867513     0.05500
C276        C  0.55520359  0.87573941  0.11899264    -0.09000
C277        C  0.53413194  0.86779081  0.13785498     0.06300
C278        C  0.51305796  0.84248901  0.13632517    -0.13300
Br279      Br  0.51707279  0.79119445  0.16622517    -0.05400
Br280      Br  0.42468278  0.75323556  0.06693818     0.00200
Br281      Br  0.58246623  0.86888118  0.07091248     0.00700
Br282      Br  0.48383090  0.83186702  0.16143875    -0.03700
Br283      Br  0.46549893  0.73252752  0.16999805     0.00800
Br284      Br  0.47450306  0.81336656  0.06612420    -0.03000
Br285      Br  0.53503567  0.80775799  0.07186844    -0.03900
Br286      Br  0.53477906  0.89067915  0.16741402     0.00100
C287        C  0.69722524  0.30904376  0.36397985     0.01500
C288        C  0.69411509  0.29254994  0.34092609     0.04300
C289        C  0.67446795  0.26657629  0.34170101    -0.11800
C290        C  0.65744496  0.25730957  0.36513005     0.23600
C291        C  0.66033893  0.27385453  0.38804780    -0.12300
C292        C  0.68028539  0.29973302  0.38752810     0.05000
C293        C  0.63561849  0.23050547  0.36507656     0.27400
C294        C  0.61207853  0.22513499  0.35261522    -0.13000
C295        C  0.59080302  0.19997074  0.35345352     0.05500
C296        C  0.59274876  0.17996499  0.36773612    -0.09000
C297        C  0.61691168  0.18549980  0.37954543     0.06300
C298        C  0.63822629  0.21071291  0.37801899    -0.13300
Br299      Br  0.63690941  0.26085069  0.42009848    -0.05400
Br300      Br  0.71581355  0.30598509  0.30754156     0.00200
Br301      Br  0.55969813  0.19357839  0.33351340     0.00700
Br302      Br  0.67115249  0.21865815  0.39420025    -0.03700
Br303      Br  0.68469710  0.32218581  0.41932805     0.00800
Br304      Br  0.67080285  0.24359323  0.31079306    -0.03000
Br305      Br  0.60909120  0.25272726  0.33472376    -0.03900
Br306      Br  0.62139220  0.15950211  0.39913823     0.00100
C307        C  0.54466953  0.05470927  0.45471651     0.01500
C308        C  0.54745593  0.06229874  0.48368552     0.04300
C309        C  0.55701798  0.05154580  0.50378148    -0.11800
C310        C  0.56357472  0.03295619  0.49508037     0.23600
C311        C  0.55978438  0.02457402  0.46639830    -0.12300
C312        C  0.55074538  0.03569112  0.44615728     0.05000
C313        C  0.57573922  0.02360147  0.01597414     0.27400
C314        C  0.60262993  0.03724608  0.02037249    -0.13000
C315        C  0.61413268  0.02795644  0.03983451     0.05500
C316        C  0.59896977  0.00378181  0.05349610    -0.09000
C317        C  0.57192401  0.98979274  0.04824725     0.06300
C318        C  0.56037362  0.00020508  0.03043119    -0.13300
Br319      Br  0.56666143  0.99750880  0.45510889    -0.05400
Br320      Br  0.53931985  0.08833549  0.49560068     0.00200
Br321      Br  0.65033149  0.04961319  0.04880366     0.00700
Br322      Br  0.52334203  0.98245180  0.02562422    -0.03700
Br323      Br  0.54609556  0.02431226  0.40683067     0.00800
Br324      Br  0.56027435  0.06187256  0.04381487    -0.03000
Br325      Br  0.62355007  0.06740481  0.49838659    -0.03900
Br326      Br  0.55027553  0.95546892  0.06355388     0.00100
C327        C  0.60140061  0.00208789  0.20393365     0.01500
C328        C  0.58761292  0.01371646  0.19283713     0.04300
C329        C  0.57576431  0.02315580  0.21145858    -0.11800
C330        C  0.57781803  0.02133245  0.24125824     0.23600
C331        C  0.59226525  0.01057233  0.25244432    -0.12300
C332        C  0.60433255  0.00127458  0.23384908     0.05000
C333        C  0.56583668  0.03192224  0.26083010     0.27400
C334        C  0.57958592  0.05817452  0.26849949    -0.13000
C335        C  0.56871058  0.06827316  0.28763327     0.05500
C336        C  0.54380791  0.05213105  0.29915468    -0.09000
C337        C  0.52956458  0.02600347  0.29031715     0.06300
C338        C  0.54073599  0.01591264  0.27146904    -0.13300
Br339      Br  0.59532476  0.00854055  0.29336732    -0.05400
Br340      Br  0.58652306  0.01861177  0.15205846     0.00200
Br341      Br  0.58766760  0.10469041  0.29660943     0.00700
Br342      Br  0.52191748  0.98002255  0.26032412    -0.03700
Br343      Br  0.62464016  0.98742157  0.24968313     0.00800
Br344      Br  0.55691877  0.03896124  0.19625395    -0.03000
Br345      Br  0.61337604  0.08028409  0.25240247    -0.03900
Br346      Br  0.49506811  0.00352655  0.30443881     0.00100
C347        C  0.22797039  0.66918148  0.13126754     0.01500
C348        C  0.23724021  0.65940425  0.15290271     0.04300
C349        C  0.26261568  0.66359371  0.15147824    -0.11800
C350        C  0.27906154  0.67807780  0.12881851     0.23600
C351        C  0.27007673  0.68849508  0.10767388    -0.12300
C352        C  0.24445984  0.68358776  0.10851276     0.05000
C353        C  0.30556350  0.68174455  0.12692284     0.27400
C354        C  0.32568026  0.70069634  0.14367206    -0.13000
C355        C  0.35021922  0.70277348  0.14361400     0.05500
C356        C  0.35544477  0.68716305  0.12507196    -0.09000
C357        C  0.33528226  0.66853997  0.10773631     0.06300
C358        C  0.31042091  0.66571779  0.10894526    -0.13300
Br359      Br  0.29310297  0.70982187  0.07778417    -0.05400
Br360      Br  0.21569293  0.64134573  0.18523483     0.00200
Br361      Br  0.37581428  0.72573174  0.17079528     0.00700
Br362      Br  0.28293861  0.64028607  0.08534679    -0.03700
Br363      Br  0.23158334  0.69537577  0.07743251     0.00800
Br364      Br  0.27505678  0.64963599  0.18066202    -0.03000
Br365      Br  0.31971495  0.72444961  0.16591137    -0.03900
Br366      Br  0.34147339  0.64741769  0.08123508     0.00100
C367        C  0.79020460  0.37058832  0.36632042     0.01500
C368        C  0.80905926  0.38774653  0.34688738     0.04300
C369        C  0.83499686  0.39438987  0.35037891    -0.11800
C370        C  0.84196411  0.38292423  0.37232117     0.23600
C371        C  0.82316009  0.36534267  0.39132582    -0.12300
C372        C  0.79739353  0.35958151  0.38876217     0.05000
C373        C  0.86888180  0.38833169  0.37443672     0.27400
C374        C  0.87653277  0.37344217  0.35834940    -0.13000
C375        C  0.90201493  0.37830545  0.36013289     0.05500
C376        C  0.91993888  0.39783519  0.37867137    -0.09000
C377        C  0.91219916  0.41299188  0.39454856     0.06300
C378        C  0.88671104  0.40827617  0.39224545    -0.13300
Br379      Br  0.83285608  0.34911439  0.42076330    -0.05400
Br380      Br  0.79935324  0.40100303  0.31435525     0.00200
Br381      Br  0.91219336  0.35870755  0.33580292     0.00700
Br382      Br  0.87587949  0.42887850  0.41359391    -0.03700
Br383      Br  0.77251900  0.33776009  0.41709957     0.00800
Br384      Br  0.86118168  0.41922126  0.32517274    -0.03000
Br385      Br  0.85180555  0.34621849  0.33386972    -0.03900
Br386      Br  0.93573030  0.43934948  0.42062349     0.00100
C387        C  0.05184651  0.48003925  0.45823900     0.01500
C388        C  0.06074542  0.50558736  0.44858159     0.04300
C389        C  0.07228440  0.52639199  0.46789767    -0.11800
C390        C  0.07466732  0.52187434  0.49697703     0.23600
C391        C  0.06588159  0.49656215  0.50674823    -0.12300
C392        C  0.05492919  0.47570924  0.48740709     0.05000
C393        C  0.08406768  0.54270634  0.01729903     0.27400
C394        C  0.11007698  0.55455055  0.02602499    -0.13000
C395        C  0.11983944  0.57500871  0.04587711     0.05500
C396        C  0.10374633  0.58424575  0.05637661    -0.09000
C397        C  0.07763644  0.57225435  0.04756669     0.06300
C398        C  0.06784533  0.55144828  0.02825143    -0.13300
Br399      Br  0.06630875  0.48935648  0.04653322    -0.05400
Br400      Br  0.05818899  0.51265243  0.40870316     0.00200
Br401      Br  0.15547739  0.59062214  0.05790314     0.00700
Br402      Br  0.03200309  0.53455202  0.01689852    -0.03700
Br403      Br  0.04317890  0.44124920  0.50161470     0.00800
Br404      Br  0.08457993  0.56126332  0.45478111    -0.03000
Br405      Br  0.13394714  0.54490828  0.50865503    -0.03900
Br406      Br  0.05457752  0.58311004  0.06308971     0.00100
C407        C  0.04209522  0.47804414  0.30430983     0.01500
C408        C  0.02855302  0.49147193  0.29869463     0.04300
C409        C  0.03845648  0.51211141  0.27899011    -0.11800
C410        C  0.06071689  0.51820228  0.26289739     0.23600
C411        C  0.07314952  0.50364700  0.26685436    -0.12300
C412        C  0.06470423  0.48456085  0.28830583     0.05000
C413        C  0.07217095  0.54096689  0.24327535     0.27400
C414        C  0.06070366  0.54003130  0.21650118    -0.13000
C415        C  0.07210476  0.56157826  0.19804566     0.05500
C416        C  0.09505872  0.58404833  0.20614175    -0.09000
C417        C  0.10647519  0.58500557  0.23277757     0.06300
C418        C  0.09501776  0.56364794  0.25137816    -0.13300
Br419      Br  0.10213317  0.51019301  0.24289795    -0.05400
Br420      Br  0.99563175  0.48110902  0.31654021     0.00200
Br421      Br  0.05659395  0.56031642  0.16137069     0.00700
Br422      Br  0.11077734  0.56544414  0.28802495    -0.03700
Br423      Br  0.08589304  0.46934404  0.29696833     0.00800
Br424      Br  0.02193558  0.53265404  0.27462776    -0.03000
Br425      Br  0.02967542  0.50912658  0.20484895    -0.03900
Br426      Br  0.13814626  0.61553799  0.24346323     0.00100
C427        C  0.21218121  0.39689340  0.36914304     0.01500
C428        C  0.20815042  0.41303030  0.34997840     0.04300
C429        C  0.18461451  0.41311862  0.35017611    -0.11800
C430        C  0.16513109  0.39768559  0.36978932     0.23600
C431        C  0.16885014  0.38151896  0.38870979    -0.12300
C432        C  0.19202064  0.38073997  0.38814714     0.05000
C433        C  0.14106604  0.39917522  0.37134571     0.27400
C434        C  0.14009193  0.41767613  0.38918648    -0.13000
C435        C  0.11719027  0.41880147  0.39135659     0.05500
C436        C  0.09497455  0.40113671  0.37601631    -0.09000
C437        C  0.09610664  0.38291148  0.35768228     0.06300
C438        C  0.11914757  0.38200286  0.35533061    -0.13300
Br439      Br  0.14216268  0.36092155  0.41598581    -0.05400
Br440      Br  0.23509620  0.43673466  0.32454605     0.00200
Br441      Br  0.11681046  0.44567417  0.41393610     0.00700
Br442      Br  0.12085750  0.35727837  0.33019789    -0.03700
Br443      Br  0.19525829  0.35659846  0.41290104     0.00800
Br444      Br  0.17911630  0.43505855  0.32416540    -0.03000
Br445      Br  0.17033502  0.44158837  0.41052460    -0.03900
Br446      Br  0.06593187  0.35859097  0.33641389     0.00100
C447        C  0.37165130  0.43086925  0.04335321     0.01500
C448        C  0.34612602  0.41060605  0.04733445     0.04300
C449        C  0.32792561  0.40376241  0.02506973    -0.11800
C450        C  0.33505691  0.41890227  0.49870217     0.23600
C451        C  0.36063008  0.43789388  0.99521907    -0.12300
C452        C  0.37880736  0.44462131  0.01736434     0.05000
C453        C  0.31634053  0.41179386  0.47477383     0.27400
C454        C  0.31562855  0.39513857  0.45307070    -0.13000
C455        C  0.29948555  0.39005398  0.42914752     0.05500
C456        C  0.28513491  0.40287091  0.42586769    -0.09000
C457        C  0.28484268  0.41853663  0.44848925     0.06300
C458        C  0.30008302  0.42251179  0.47308385    -0.13300
Br459      Br  0.36900138  0.46192536  0.46224703    -0.05400
Br460      Br  0.33628692  0.39209817  0.08310746     0.00200
Br461      Br  0.29625301  0.36445067  0.40161954     0.00700
Br462      Br  0.30369193  0.44629349  0.00435078    -0.03700
Br463      Br  0.41326282  0.47358378  0.01268635     0.00800
Br464      Br  0.29315824  0.37560337  0.02998872    -0.03000
Br465      Br  0.33744805  0.37991994  0.45583283    -0.03900
Br466      Br  0.26518743  0.43609521  0.44561542     0.00100
C467        C  0.29156828  0.41035029  0.32180468     0.01500
C468        C  0.30876727  0.43647450  0.31542565     0.04300
C469        C  0.32574679  0.44308038  0.29208372    -0.11800
C470        C  0.32628114  0.42351099  0.27575553     0.23600
C471        C  0.30895759  0.39731805  0.28214917    -0.12300
C472        C  0.29125456  0.39077206  0.30481027     0.05000
C473        C  0.34485623  0.43028252  0.25173500     0.27400
C474        C  0.33609905  0.42774086  0.22332211    -0.13000
C475        C  0.35291044  0.43157617  0.20041468     0.05500
C476        C  0.37917110  0.43931544  0.20575665    -0.09000
C477        C  0.38819165  0.44317897  0.23441225     0.06300
C478        C  0.37099288  0.43836879  0.25724541    -0.13300
Br479      Br  0.30997363  0.37043033  0.26027114    -0.05400
Br480      Br  0.30922820  0.46320087  0.33904733     0.00200
Br481      Br  0.33897766  0.42469978  0.16199142     0.00700
Br482      Br  0.38333677  0.44331552  0.29625049    -0.03700
Br483      Br  0.26674032  0.35508397  0.31276052     0.00800
Br484      Br  0.34825556  0.47890719  0.28250172    -0.03000
Br485      Br  0.30095953  0.41945532  0.21595124    -0.03900
Br486      Br  0.42434824  0.45651275  0.24297676     0.00100
C487        C  0.92742206  0.65732752  0.11760711     0.01500
C488        C  0.95056139  0.68005120  0.12442073     0.04300
C489        C  0.97403436  0.67989128  0.12521393    -0.11800
C490        C  0.97461913  0.65725158  0.11802561     0.23600
C491        C  0.95163336  0.63487399  0.10976980    -0.12300
C492        C  0.92802291  0.63479519  0.10996817     0.05000
C493        C  0.99927973  0.65683915  0.11982180     0.27400
C494        C  0.01835538  0.66908622  0.09867740    -0.13000
C495        C  0.04256118  0.67072559  0.10178256     0.05500
C496        C  0.04674389  0.65720167  0.12410490    -0.09000
C497        C  0.02682690  0.64345883  0.14429547     0.06300
C498        C  0.00384664  0.64458039  0.14302100    -0.13300
Br499      Br  0.95255536  0.60427419  0.09846309    -0.05400
Br500      Br  0.95014849  0.71164102  0.13154406     0.00200
Br501      Br  0.07043964  0.69358297  0.07684582     0.00700
Br502      Br  0.97869514  0.62974510  0.17336598    -0.03700
Br503      Br  0.89635073  0.60346621  0.10100851     0.00800
Br504      Br  0.00530073  0.71047266  0.13697893    -0.03000
Br505      Br  0.01105124  0.68313279  0.06508786    -0.03900
Br506      Br  0.02975578  0.62148178  0.17261264     0.00100
C507        C  0.85802087  0.65578058  0.17583514     0.01500
C508        C  0.85004663  0.63409376  0.19368847     0.04300
C509        C  0.83408980  0.63049928  0.21741492    -0.11800
C510        C  0.82654006  0.64885931  0.22378311     0.23600
C511        C  0.83597567  0.67140529  0.20706588    -0.12300
C512        C  0.85152661  0.67476108  0.18299599     0.05000
C513        C  0.80704983  0.64327241  0.24656540     0.27400
C514        C  0.78062133  0.62988683  0.23954379    -0.13000
C515        C  0.76183876  0.62189637  0.26123535     0.05500
C516        C  0.76929806  0.62812508  0.29021980    -0.09000
C517        C  0.79595300  0.64256795  0.29701382     0.06300
C518        C  0.81469923  0.64994064  0.27524131    -0.13300
Br519      Br  0.82661741  0.69706468  0.21655039    -0.05400
Br520      Br  0.85942630  0.60833874  0.18450098     0.00200
Br521      Br  0.72604281  0.60036455  0.25095377     0.00700
Br522      Br  0.85101446  0.66925081  0.28438361    -0.03700
Br523      Br  0.86379547  0.70522192  0.15954218     0.00800
Br524      Br  0.82116782  0.59959911  0.24023565    -0.03000
Br525      Br  0.77026057  0.62223480  0.19993105    -0.03900
Br526      Br  0.80713082  0.65305242  0.33592416     0.00100
C527        C  0.76238092  0.61882348  0.45533845     0.01500
C528        C  0.78116542  0.61074824  0.45561339     0.04300
C529        C  0.79843080  0.61726655  0.47873770    -0.11800
C530        C  0.79652877  0.63039806  0.00132638     0.23600
C531        C  0.77771898  0.63821922  0.50283056    -0.12300
C532        C  0.76116817  0.63303787  0.47919611     0.05000
C533        C  0.81424274  0.63584325  0.02592625     0.27400
C534        C  0.80812869  0.61692194  0.04716870    -0.13000
C535        C  0.82517910  0.62182041  0.07014123     0.05500
C536        C  0.84803914  0.64590932  0.07237091    -0.09000
C537        C  0.85421471  0.66480154  0.05110253     0.06300
C538        C  0.83744109  0.65966885  0.02773728    -0.13300
Br539      Br  0.77649911  0.65722060  0.03480100    -0.05400
Br540      Br  0.78309978  0.58922921  0.42582727     0.00200
Br541      Br  0.81773543  0.59518081  0.09806821     0.00700
Br542      Br  0.84541781  0.68570638  0.50014582    -0.03700
Br543      Br  0.73787018  0.64671624  0.48019149     0.00800
Br544      Br  0.82514528  0.60798693  0.47825655    -0.03000
Br545      Br  0.77626799  0.58437603  0.04482355    -0.03900
Br546      Br  0.88513368  0.69799410  0.05456813     0.00100
C547        C  0.69141640  0.79291959  0.37949912     0.01500
C548        C  0.67249383  0.77035792  0.39326409     0.04300
C549        C  0.67549709  0.74850020  0.39485698    -0.11800
C550        C  0.69720882  0.74902461  0.38239571     0.23600
C551        C  0.71654744  0.77183632  0.36954284    -0.12300
C552        C  0.71370369  0.79379969  0.36820035     0.05000
C553        C  0.69831325  0.72484440  0.38042602     0.27400
C554        C  0.71251496  0.71932403  0.40043913    -0.13000
C555        C  0.71280265  0.69593630  0.39863443     0.05500
C556        C  0.69821448  0.67761866  0.37724239    -0.09000
C557        C  0.68387871  0.68328286  0.35730189     0.06300
C558        C  0.68428111  0.70696160  0.35870498    -0.13300
Br559      Br  0.74670785  0.77280231  0.35341196    -0.05400
Br560      Br  0.64174665  0.76878595  0.40855374     0.00200
Br561      Br  0.73431745  0.68989103  0.42467807     0.00700
Br562      Br  0.66521257  0.71494242  0.33104228    -0.03700
Br563      Br  0.74072857  0.82537760  0.35167250     0.00800
Br564      Br  0.64961696  0.71745502  0.41345623    -0.03000
Br565      Br  0.73130207  0.74378466  0.43046585    -0.03900
Br566      Br  0.66220870  0.65822086  0.32891400     0.00100
C567        C  0.67277961  0.93252668  0.04293364     0.01500
C568        C  0.67686882  0.91130612  0.04795402     0.04300
C569        C  0.68106651  0.89871620  0.02490792    -0.11800
C570        C  0.68161985  0.90647284  0.49713503     0.23600
C571        C  0.68147296  0.92959438  0.49240318    -0.12300
C572        C  0.67481797  0.94177236  0.01439751     0.05000
C573        C  0.68274304  0.89144832  0.47257150     0.27400
C574        C  0.70616716  0.89268541  0.46503661    -0.13000
C575        C  0.70683886  0.87801456  0.44187507     0.05500
C576        C  0.68417826  0.86244260  0.42611143    -0.09000
C577        C  0.66073347  0.86090699  0.43389586     0.06300
C578        C  0.65999695  0.87541834  0.45709673    -0.13300
Br579      Br  0.68650697  0.94325823  0.45394333    -0.05400
Br580      Br  0.67721526  0.89881772  0.08606860     0.00200
Br581      Br  0.73882202  0.87966345  0.43124173     0.00700
Br582      Br  0.62788424  0.87358748  0.46756253    -0.03700
Br583      Br  0.66970707  0.97045477  0.00492212     0.00800
Br584      Br  0.68495558  0.86886536  0.03149925    -0.03000
Br585      Br  0.73831551  0.91918415  0.98317134    -0.03900
Br586      Br  0.62955376  0.83842768  0.41302741     0.00100
C587        C  0.68552937  0.85907749  0.32211652     0.01500
C588        C  0.70474399  0.88485406  0.31660657     0.04300
C589        C  0.70295800  0.89768633  0.29225665    -0.11800
C590        C  0.68229205  0.88463350  0.27300367     0.23600
C591        C  0.66385898  0.85847264  0.27762504    -0.12300
C592        C  0.66527638  0.84576123  0.30233755     0.05000
C593        C  0.67810857  0.89911067  0.24987044     0.27400
C594        C  0.66226923  0.90987013  0.25521053    -0.13000
C595        C  0.65629660  0.92182109  0.23298735     0.05500
C596        C  0.66747871  0.92461910  0.20570127    -0.09000
C597        C  0.68368712  0.91413566  0.20046558     0.06300
C598        C  0.68882269  0.90122016  0.22250528    -0.13300
Br599      Br  0.63585227  0.84067409  0.25076633    -0.05400
Br600      Br  0.73345696  0.90275909  0.34262558     0.00200
Br601      Br  0.63046857  0.93160464  0.23929522     0.00700
Br602      Br  0.71042840  0.88632155  0.21540073    -0.03700
Br603      Br  0.63811370  0.81103644  0.31033654     0.00800
Br604      Br  0.72790090  0.93360609  0.28604443    -0.03000
Br605      Br  0.64864736  0.90805347  0.29314917    -0.03900
Br606      Br  0.69907824  0.91759038  0.16330273     0.00100
C607        C  0.84601667  0.17287500  0.13433837     0.01500
C608        C  0.84148703  0.15311515  0.15445452     0.04300
C609        C  0.81832815  0.12911953  0.15344263    -0.11800
C610        C  0.80043858  0.12373549  0.13126895     0.23600
C611        C  0.80547054  0.14241962  0.11023724    -0.12300
C612        C  0.82726470  0.16725385  0.11249865     0.05000
C613        C  0.77545100  0.09902898  0.13091656     0.27400
C614        C  0.77313041  0.07730247  0.11638676    -0.13000
C615        C  0.74916432  0.05419679  0.11553014     0.05500
C616        C  0.72737211  0.05287439  0.12890343    -0.09000
C617        C  0.72965980  0.07474395  0.14308894     0.06300
C618        C  0.75369717  0.09766831  0.14434632    -0.13300
Br619      Br  0.78210221  0.13369097  0.07817568    -0.05400
Br620      Br  0.86679986  0.15749263  0.18303501     0.00200
Br621      Br  0.74635365  0.02413550  0.09674454     0.00700
Br622      Br  0.75692934  0.12743165  0.16427572    -0.03700
Br623      Br  0.82890592  0.19348316  0.08687376     0.00800
Br624      Br  0.81062508  0.10334832  0.18260807    -0.03000
Br625      Br  0.80279939  0.07944601  0.09745440    -0.03900
Br626      Br  0.69950803  0.07376629  0.15935623     0.00100
C627        C  0.91429921  0.24535141  0.19089169     0.01500
C628        C  0.94147545  0.25832900  0.19391988     0.04300
C629        C  0.95333500  0.27412508  0.21787594    -0.11800
C630        C  0.93811498  0.27659654  0.23919366     0.23600
C631        C  0.91099413  0.26222915  0.23732650    -0.12300
C632        C  0.89904729  0.24690872  0.21305761     0.05000
C633        C  0.95048739  0.29634037  0.26191174     0.27400
C634        C  0.96037159  0.29106875  0.28681493    -0.13000
C635        C  0.97124733  0.30976145  0.30859622     0.05500
C636        C  0.97214193  0.33362556  0.30546205    -0.09000
C637        C  0.96280238  0.33911841  0.28029314     0.06300
C638        C  0.95215380  0.32056722  0.25845909    -0.13300
Br639      Br  0.89035396  0.26485768  0.26748587    -0.05400
Br640      Br  0.96272234  0.25487233  0.16512954     0.00200
Br641      Br  0.98596209  0.30327388  0.34215663     0.00700
Br642      Br  0.94019884  0.32845176  0.22352156    -0.03700
Br643      Br  0.86200632  0.23061369  0.20917288     0.00800
Br644      Br  0.99051429  0.29356168  0.22089227    -0.03000
Br645      Br  0.95942592  0.25849549  0.29071527    -0.03900
Br646      Br  0.96405652  0.37189454  0.27601709     0.00100
C647        C  0.97084991  0.34091826  0.47042311     0.01500
C648        C  0.98345194  0.33100418  0.48753634     0.04300
C649        C  0.97038461  0.31446432  0.51072423    -0.11800
C650        C  0.94383173  0.30609130  0.01555117     0.23600
C651        C  0.93164677  0.31645031  0.49926772    -0.12300
C652        C  0.94500736  0.33403004  0.47703128     0.05000
C653        C  0.93020137  0.28818889  0.03977684     0.27400
C654        C  0.92096451  0.26153572  0.03675952    -0.13000
C655        C  0.91131096  0.24501520  0.06065502     0.05500
C656        C  0.90927428  0.25484592  0.08750057    -0.09000
C657        C  0.91624069  0.28123584  0.08965389     0.06300
C658        C  0.92732000  0.29790175  0.06611500    -0.13300
Br659      Br  0.89575569  0.30532885  0.50641751    -0.05400
Br660      Br  0.01807756  0.33869476  0.47857858     0.00200
Br661      Br  0.90265682  0.20942687  0.05642344     0.00700
Br662      Br  0.93863383  0.33420052  0.06989115    -0.03700
Br663      Br  0.92802446  0.34983705  0.45713804     0.00800
Br664      Br  0.98804359  0.30259073  0.03496763    -0.03000
Br665      Br  0.92145712  0.24859799  0.49904505    -0.03900
Br666      Br  0.90935537  0.29476815  0.12410651     0.00100
C667        C  0.30150618  0.88755152  0.38018969     0.01500
C668        C  0.32469352  0.88939963  0.37043156     0.03300
C669        C  0.34768579  0.91331024  0.37090249    -0.11800
C670        C  0.34782859  0.93506564  0.38266113     0.23600
C671        C  0.32485400  0.93311002  0.39318481    -0.12300
C672        C  0.30161666  0.90945418  0.39153809     0.05000
C673        C  0.37216404  0.96007298  0.38361422     0.27400
C674        C  0.39026285  0.96508267  0.40551764    -0.13000
C675        C  0.41410517  0.98822746  0.40541601     0.05500
C676        C  0.41957264  0.00673077  0.38369153    -0.09000
C677        C  0.40079290  0.00204720  0.36249745     0.06300
C678        C  0.37737969  0.97854771  0.36219009    -0.13300
Br679      Br  0.32534294  0.96296719  0.40962518    -0.05400
Br680      Br  0.32551943  0.85900691  0.35829527     0.00200
Br681      Br  0.43958751  0.99349158  0.43413024     0.00700
Br682      Br  0.35248885  0.97128417  0.33208145    -0.03700
Br683      Br  0.26981039  0.90725859  0.40398991     0.00800
Br684      Br  0.37898288  0.91651074  0.35500879    -0.03000
Br685      Br  0.38237183  0.93987102  0.43535533    -0.03900
Br686      Br  0.40631061  0.02811554  0.33445793     0.00100
C687        C  0.23189348  0.81296594  0.42962095     0.01500
C688        C  0.24716485  0.80755236  0.44833866     0.04300
C689        C  0.23585941  0.79170747  0.47236615    -0.11800
C690        C  0.20927939  0.78109151  0.47774051     0.23600
C691        C  0.19407699  0.78672207  0.45930051    -0.12300
C692        C  0.20535897  0.80273619  0.43535579     0.05000
C693        C  0.19703527  0.76290073  0.50193052     0.27400
C694        C  0.18690895  0.73626687  0.49757035    -0.13000
C695        C  0.17465682  0.71852825  0.02001958     0.05500
C696        C  0.17305649  0.72756700  0.04751857    -0.09000
C697        C  0.18350442  0.75437882  0.05192387     0.06300
C698        C  0.19559494  0.77188215  0.02924348    -0.13300
Br699      Br  0.15756717  0.77162759  0.46643880    -0.05400
Br700      Br  0.28317483  0.82000667  0.44000597     0.00200
Br701      Br  0.16238317  0.68231454  0.01348208     0.00700
Br702      Br  0.21058735  0.80855577  0.03538763    -0.03700
Br703      Br  0.18443102  0.81088681  0.41074201     0.00800
Br704      Br  0.25652432  0.78351092  0.49728301    -0.03000
Br705      Br  0.18880643  0.72379027  0.46002961    -0.03900
Br706      Br  0.18015643  0.76727041  0.08848068     0.00100
C707        C  0.23413317  0.81508968  0.32535375     0.01500
C708        C  0.24409381  0.80066734  0.31232066     0.04300
C709        C  0.23189350  0.78564125  0.28804399    -0.11800
C710        C  0.20886428  0.78386021  0.27781131     0.23600
C711        C  0.19904621  0.79850718  0.29067205    -0.12300
C712        C  0.21209661  0.81465258  0.31399639     0.05000
C713        C  0.19402452  0.76500818  0.25506976     0.27400
C714        C  0.19521284  0.77320731  0.22663453    -0.13000
C715        C  0.18189763  0.75495836  0.20501510     0.05500
C716        C  0.16854164  0.72829146  0.21148789    -0.09000
C717        C  0.16698341  0.72022145  0.24023310     0.06300
C718        C  0.17922720  0.73862841  0.26198942    -0.13300
Br719      Br  0.16692050  0.79516038  0.27745492    -0.05400
Br720      Br  0.27312041  0.79976298  0.32907151     0.00200
Br721      Br  0.18102653  0.76681158  0.16688893     0.00700
Br722      Br  0.17630421  0.72780370  0.30144335    -0.03700
Br723      Br  0.19965768  0.83587929  0.33077380     0.00800
Br724      Br  0.24601643  0.76653665  0.26950193    -0.03000
Br725      Br  0.21573067  0.80940346  0.21729203    -0.03900
Br726      Br  0.14985208  0.68404327  0.25010924     0.00100
C727        C  0.43660272  0.37098300  0.12686940     0.01500
C728        C  0.44596628  0.36206756  0.10420327     0.04300
C729        C  0.44448331  0.33784953  0.10610228    -0.11800
C730        C  0.43510881  0.32295074  0.13111878     0.23600
C731        C  0.42608183  0.33169327  0.15385245    -0.12300
C732        C  0.42600435  0.35516998  0.15145246     0.05000
C733        C  0.43575757  0.29852561  0.13365899     0.27400
C734        C  0.41368943  0.27468599  0.12703669    -0.13000
C735        C  0.41524931  0.25194220  0.12665071     0.05500
C736        C  0.43891714  0.25309763  0.13257589    -0.09000
C737        C  0.46067371  0.27673868  0.14031156     0.06300
C738        C  0.45906291  0.29939675  0.14099912    -0.13300
Br739      Br  0.41439201  0.31155303  0.18855634    -0.05400
Br740      Br  0.46268271  0.38326267  0.07108289     0.00200
Br741      Br  0.38501969  0.21912898  0.11842722     0.00700
Br742      Br  0.48895742  0.33184962  0.15123904    -0.03700
Br743      Br  0.40989026  0.36439372  0.18149443     0.00800
Br744      Br  0.45571980  0.32494998  0.07453669    -0.03000
Br745      Br  0.38160743  0.27341442  0.11781756    -0.03900
Br746      Br  0.49305246  0.27824634  0.14863750     0.00100
C747        C  0.47174093  0.12129373  0.29263691     0.01500
C748        C  0.45984545  0.13620520  0.29807111     0.04300
C749        C  0.45468890  0.14847747  0.27538262    -0.11800
C750        C  0.45938350  0.14418346  0.24692829     0.23600
C751        C  0.46887984  0.12725997  0.24128283    -0.12300
C752        C  0.47602425  0.11666306  0.26402014     0.05000
C753        C  0.45638797  0.15891198  0.22302879     0.27400
C754        C  0.43171301  0.15212364  0.21229685    -0.13000
C755        C  0.42935499  0.16587909  0.18912549     0.05500
C756        C  0.45162378  0.18554289  0.17580103    -0.09000
C757        C  0.47624288  0.19223102  0.18632645     0.06300
C758        C  0.47860725  0.17946004  0.21042043    -0.13300
Br759      Br  0.47274392  0.11923410  0.20219072    -0.05400
Br760      Br  0.44950031  0.13896511  0.33642887     0.00200
Br761      Br  0.39568554  0.15766845  0.17520833     0.00700
Br762      Br  0.51230590  0.19022958  0.22638135    -0.03700
Br763      Br  0.49384589  0.09791879  0.25553289     0.00800
Br764      Br  0.44241218  0.17218376  0.28340496    -0.03000
Br765      Br  0.40123991  0.12361448  0.22876571    -0.03900
Br766      Br  0.50669653  0.21864319  0.16743644     0.00100
C767        C  0.47970427  0.13629102  0.45348558     0.01500
C768        C  0.45702376  0.13787442  0.45062103     0.04300
C769        C  0.45064695  0.15079316  0.47154190    -0.11800
C770        C  0.46707968  0.16220987  0.99598907     0.23600
C771        C  0.48953679  0.16047979  0.49826365    -0.12300
C772        C  0.49617396  0.14807273  0.47708120     0.05000
C773        C  0.45892275  0.17269663  0.02019300     0.27400
C774        C  0.46985449  0.19954149  0.02404919    -0.13000
C775        C  0.46572570  0.20931580  0.04978987     0.05500
C776        C  0.44978798  0.19208281  0.07136620    -0.09000
C777        C  0.43687438  0.16522672  0.06605885     0.06300
C778        C  0.44184170  0.15559912  0.04087170    -0.13300
Br779      Br  0.51150900  0.17538239  0.53129556    -0.05400
Br780      Br  0.43400332  0.12109988  0.41889633     0.00200
Br781      Br  0.48362957  0.24620648  0.05593155     0.00700
Br782      Br  0.42607672  0.11804707  0.53516152    -0.03700
Br783      Br  0.52808557  0.14752105  0.48016922     0.00800
Br784      Br  0.42075821  0.15479926  0.96756509    -0.03000
Br785      Br  0.49097719  0.22277634  0.99420190    -0.03900
Br786      Br  0.41168953  0.14133918  0.09287984     0.00100
C787        C  0.44125851  0.22941838  0.62950618     0.80400
N788        N  0.44257355  0.22070251  0.60301953    -0.77900
C789        C  0.44742246  0.20092243  0.60000059     0.82800
N790        N  0.45087648  0.18984563  0.62378799    -0.77900
C791        C  0.44913353  0.19817458  0.65023253     0.82900
N792        N  0.44449777  0.21804528  0.65311623    -0.79600
C793        C  0.27607013  0.86325528  0.87907859     0.80400
N794        N  0.26579370  0.85186275  0.85354168    -0.77900
C795        C  0.24364465  0.82869315  0.85286734     0.82800
N796        N  0.23216199  0.81667749  0.87763686    -0.77900
C797        C  0.24239763  0.82787912  0.90318409     0.82900
N798        N  0.26433042  0.85124873  0.90382121    -0.79600
C799        C  0.86966390  0.19854943  0.63556458     0.80400
N800        N  0.87936053  0.21319088  0.61156566    -0.77900
C801        C  0.90017745  0.23735970  0.61279747     0.82800
N802        N  0.91185600  0.24664917  0.63833313    -0.77900
C803        C  0.90266830  0.23250765  0.66252414     0.82900
N804        N  0.88134715  0.20863390  0.66112644    -0.79600
C805        C  0.68935932  0.81659928  0.87767731     0.80400
N806        N  0.68882640  0.82668129  0.85173061    -0.77900
C807        C  0.68684210  0.84832961  0.85014494     0.82800
N808        N  0.68531741  0.85973801  0.87454558    -0.77900
C809        C  0.68602414  0.84988248  0.90039007     0.82900
N810        N  0.68811647  0.82834965  0.90200823    -0.79600
C811        C  0.90277498  0.65675544  0.61977664     0.80400
N812        N  0.88795982  0.65296122  0.59618575    -0.77900
C813        C  0.86452373  0.65125618  0.59875151     0.82800
N814        N  0.85586410  0.65314670  0.62491661    -0.77900
C815        C  0.87048434  0.65699400  0.64858575     0.82900
N816        N  0.89396443  0.65869536  0.64601814    -0.79600
C817        C  0.23967931  0.40212482  0.87094534     0.80400
N818        N  0.25367905  0.40532350  0.84675438    -0.77900
C819        C  0.27759252  0.40815350  0.84844739     0.82800
N820        N  0.28768913  0.40779519  0.87432954    -0.77900
C821        C  0.27383455  0.40426164  0.89862582     0.82900
N822        N  0.24999051  0.40163481  0.89682865    -0.79600
O823        O  0.97174856  0.34931479  0.84997184    -0.78300
C824        C  0.98317694  0.35695947  0.94425589     0.82700
O825        O  0.96553966  0.42325727  0.88168291    -0.79500
O826        O  0.04489698  0.43992127  0.93726055    -0.80900
O827        O  0.06170998  0.40628354  0.85616090    -0.80700
O828        O  0.00571242  0.37346846  0.82219264    -0.79400
Zn829      Zn  0.97645130  0.37214004  0.88401800     1.55700
O830        O  0.06004143  0.39926651  0.90326524    -0.80800
Cd831      Cd  0.02764761  0.40559810  0.84681220     1.59700
Cd832      Cd  0.00459583  0.43498837  0.88337756     1.59600
O833        O  0.03513507  0.43708990  0.82159416    -0.80700
O834        O  0.00920580  0.40401902  0.88286650    -1.91300
Cd835      Cd  0.02964823  0.40436047  0.91686108     1.59900
O836        O  0.02193000  0.45901834  0.84816261    -0.80700
O837        O  0.00610360  0.37606307  0.94672254    -0.79400
C838        C  0.94592231  0.40057619  0.88107614     0.83200
C839        C  0.98436579  0.35296593  0.82682951     0.82800
O840        O  0.97072985  0.35262631  0.92088313    -0.78300
C841        C  0.07087560  0.40213945  0.87890675     0.83600
O842        O  0.94823918  0.38057886  0.88229118    -0.78400
C843        C  0.03231341  0.45663929  0.82539287     0.83800
C844        C  0.03861416  0.45744734  0.93706806     0.84100
O845        O  0.02188206  0.45686093  0.91961425    -0.80800
O846        O  0.17455762  0.71372176  0.59531211    -0.78300
C847        C  0.15727650  0.70935902  0.68846104     0.82700
O848        O  0.18316168  0.64362670  0.63514229    -0.79500
O849        O  0.10151059  0.62355381  0.68677069    -0.80900
O850        O  0.08311161  0.65606038  0.60288149    -0.80700
O851        O  0.14018528  0.68917168  0.56833721    -0.79400
Zn852      Zn  0.16927929  0.69261733  0.63141258     1.55700
O853        O  0.08196765  0.65924110  0.65021230    -0.80800
Cd854      Cd  0.11811664  0.65787416  0.59479346     1.59700
Cd855      Cd  0.14361818  0.63056014  0.63387405     1.59600
O856        O  0.11042410  0.62498048  0.57269771    -0.80700
O857        O  0.13673957  0.66013199  0.63111944    -1.91300
Cd858      Cd  0.11433987  0.65800554  0.66410222     1.59900
O859        O  0.12816578  0.60663782  0.59881781    -0.80700
O860        O  0.13501026  0.68933356  0.69091222    -0.79400
C861        C  0.20233844  0.66655980  0.63361902     0.83200
C862        C  0.16204821  0.70947672  0.57192638     0.82800
O863        O  0.17157361  0.71295490  0.66673191    -0.78300
C864        C  0.07206401  0.65751900  0.62556469     0.83600
O865        O  0.19925720  0.68614177  0.63244437    -0.78400
C866        C  0.11538065  0.60685975  0.57710740     0.83800
C867        C  0.10768217  0.60595371  0.68585137     0.84100
O868        O  0.12439962  0.60674961  0.66832809    -0.80800
O869        O  0.49356667  0.12724856  0.83732964    -0.78300
C870        C  0.48643662  0.12271447  0.93209832     0.82700
O871        O  0.57141472  0.13395212  0.87174082    -0.79500
O872        O  0.51235623  0.06339053  0.93694346    -0.80900
O873        O  0.45591384  0.03706703  0.85831001    -0.80700
O874        O  0.47696826  0.08872371  0.81651815    -0.79400
Zn875      Zn  0.51028007  0.12485483  0.87388724     1.55700
O876        O  0.45481952  0.04352838  0.90520445    -0.80800
Cd877      Cd  0.48857410  0.06918749  0.84374420     1.59700
Cd878      Cd  0.54352018  0.09530297  0.87621693     1.59600
O879        O  0.51016392  0.05772186  0.81925883    -0.80700
O880        O  0.50830716  0.09155535  0.87691330    -1.91300
Cd881      Cd  0.49058994  0.07547559  0.91375790     1.59900
O882        O  0.54795884  0.07600425  0.84185957    -0.80700
O883        O  0.48482684  0.10121273  0.93856043    -0.79400
C884        C  0.56931420  0.15415447  0.87098732     0.83200
C885        C  0.48119169  0.11181960  0.81691964     0.82800
O886        O  0.49439141  0.13310880  0.90767420    -0.78300
C887        C  0.44468816  0.03045659  0.88251536     0.83600
O888        O  0.54733734  0.15257146  0.87270717    -0.78400
C889        C  0.53334781  0.06234935  0.82148250     0.83800
C890        C  0.53497311  0.06655676  0.93377667     0.84100
O891        O  0.54940720  0.07900475  0.91269521    -0.80800
O892        O  0.65318897  0.92884794  0.58892552    -0.78300
C893        C  0.66157420  0.93767942  0.68284644     0.82700
O894        O  0.57530045  0.92089596  0.62368696    -0.79500
O895        O  0.63555864  0.99644062  0.68530647    -0.80900
O896        O  0.69085175  0.01949835  0.60373407    -0.80700
O897        O  0.66778636  0.96548982  0.56542760    -0.79400
Zn898      Zn  0.63679052  0.93224757  0.62465578     1.55700
O899        O  0.69203550  0.01686609  0.65138093    -0.80800
Cd900      Cd  0.65701200  0.98636039  0.59191822     1.59700
Cd901      Cd  0.60283275  0.95977370  0.62793122     1.59600
O902        O  0.63309803  0.99627169  0.56894281    -0.80700
O903        O  0.63864552  0.96548961  0.62655988    -1.91300
Cd904      Cd  0.65734753  0.98431989  0.66196519     1.59900
O905        O  0.59747040  0.97983531  0.59536237    -0.80700
O906        O  0.66461556  0.96010371  0.68737079    -0.79400
C907        C  0.57822468  0.90120379  0.62213062     0.83200
C908        C  0.66446171  0.94277565  0.56727249     0.82800
O909        O  0.65224224  0.92560944  0.65949259    -0.78300
C910        C  0.70195794  0.02821303  0.62778184     0.83600
O911        O  0.60045329  0.90336557  0.62285029    -0.78400
C912        C  0.61043007  0.99256112  0.57367624     0.83800
C913        C  0.61177411  0.99008343  0.68402016     0.84100
O914        O  0.59667203  0.97459079  0.66502913    -0.80800
C915        C  0.71856460  0.33610803  0.86223831     0.80400
N916        N  0.71414470  0.35628464  0.86145861    -0.77900
C917        C  0.73431394  0.38085154  0.86079466     0.82800
N918        N  0.75879723  0.38506313  0.86136943    -0.77900
C919        C  0.76334982  0.36503399  0.86246277     0.82900
N920        N  0.74314954  0.34052801  0.86267384    -0.79600
C921        C  0.42735041  0.71997856  0.61821527     0.80400
N922        N  0.40298886  0.71589977  0.62062821    -0.77900
C923        C  0.38252673  0.69154586  0.62257603     0.82800
N924        N  0.38672813  0.67111166  0.62170641    -0.77900
C925        C  0.41114446  0.67510531  0.61878780     0.82900
N926        N  0.43128272  0.69956492  0.61726508    -0.79600
O927        O  0.38920062  0.44884909  0.58831169    -0.78300
C928        C  0.39742586  0.44369708  0.68137869     0.82700
O929        O  0.46597973  0.52642460  0.61280735    -0.79500
O930        O  0.48006678  0.46759668  0.67640771    -0.80900
O931        O  0.43523825  0.40437842  0.60016489    -0.80700
O932        O  0.40972018  0.43398704  0.56119107    -0.79400
Zn933      Zn  0.41318022  0.46659998  0.62158988     1.55700
O934        O  0.44296590  0.40963690  0.64691232    -0.80800
Cd935      Cd  0.44063079  0.44002616  0.58679866     1.59700
Cd936      Cd  0.47466998  0.49691151  0.61658832     1.59600
O937        O  0.47437910  0.45831062  0.56258265    -0.80700
O938        O  0.44309424  0.46205679  0.62019994    -1.91300
Cd939      Cd  0.44530454  0.44471285  0.65581165     1.59900
O940        O  0.49603267  0.49779132  0.58164551    -0.80700
O941        O  0.41558350  0.43842067  0.68353972    -0.79400
C942        C  0.44423311  0.52542723  0.61468806     0.83200
C943        C  0.39100753  0.43810461  0.56556892     0.82800
O944        O  0.39447525  0.45402453  0.65892622    -0.78300
C945        C  0.43804421  0.39606033  0.62428853     0.83600
O946        O  0.42345887  0.50410999  0.61857122    -0.78400
C947        C  0.49386307  0.48111980  0.56321327     0.83800
C948        C  0.49835651  0.49060001  0.67226048     0.84100
O949        O  0.49847937  0.50443155  0.65148069    -0.80800
O950        O  0.75239153  0.60938297  0.83502355    -0.78300
C951        C  0.74359029  0.61234476  0.93021412     0.82700
O952        O  0.68170804  0.52823458  0.86521140    -0.79500
O953        O  0.65761507  0.58059718  0.92549240    -0.80900
O954        O  0.69923073  0.64408399  0.84941437    -0.80700
O955        O  0.72859077  0.62063709  0.80874456    -0.79400
Zn956      Zn  0.73015580  0.59112922  0.86963290     1.55700
O957        O  0.69449520  0.64001475  0.89681607    -0.80800
Cd958      Cd  0.69695034  0.61032806  0.83548091     1.59700
Cd959      Cd  0.66792731  0.55383891  0.86632653     1.59600
O960        O  0.66292690  0.58921403  0.81234567    -0.80700
O961        O  0.69721189  0.59004574  0.86924832    -1.91300
Cd962      Cd  0.69265181  0.60500259  0.90556667     1.59900
O963        O  0.64725207  0.54938693  0.82945529    -0.80700
O964        O  0.72171575  0.61071480  0.93414401    -0.79400
C965        C  0.70472633  0.53221798  0.86647783     0.83200
C966        C  0.74907318  0.61933101  0.81243043     0.82800
O967        O  0.74975776  0.60775424  0.90575493    -0.78300
C968        C  0.69742976  0.65265993  0.87374970     0.83600
O969        O  0.72412495  0.55487010  0.86883330    -0.78400
C970        C  0.64630044  0.56515884  0.81184890     0.83800
C971        C  0.64018102  0.55726259  0.92086440     0.84100
O972        O  0.64172169  0.54447672  0.89983294    -0.80800
C973        C  0.62497353  0.55491423  0.79054652     0.01500
C974        C  0.62940426  0.56398770  0.76194254     0.04300
C975        C  0.60918450  0.55329031  0.74180217    -0.11800
C976        C  0.58465169  0.53321988  0.74988102     0.23600
C977        C  0.58021312  0.52379076  0.77805630    -0.12300
C978        C  0.59994131  0.53516904  0.79860813     0.05000
C979        C  0.56298603  0.52278971  0.72923948     0.27400
C980        C  0.54497503  0.53148160  0.73016222    -0.13000
C981        C  0.52363276  0.52076881  0.71159423     0.05500
C982        C  0.52043350  0.50155294  0.69194157    -0.09000
C983        C  0.53860780  0.49310788  0.69071180     0.06300
C984        C  0.55980994  0.50360184  0.70950335    -0.13300
Br985      Br  0.54694274  0.49490718  0.78821630    -0.05400
Br986      Br  0.66304404  0.59056033  0.74950416     0.00200
Br987      Br  0.49830620  0.53176081  0.71362723     0.00700
Br988      Br  0.58433728  0.49154435  0.70854980    -0.03700
Br989      Br  0.59142867  0.52492392  0.83816813     0.00800
Br990      Br  0.61499203  0.56582543  0.70288162    -0.03000
Br991      Br  0.54949216  0.55788606  0.75713967    -0.03900
Br992      Br  0.53474963  0.46763976  0.66277701     0.00100
C993        C  0.51481069  0.48886753  0.54199563     0.01500
C994        C  0.50926906  0.48635164  0.51241630     0.04300
C995        C  0.52860968  0.49498511  0.99161138    -0.11800
C996        C  0.55538488  0.50870081  0.50177821     0.23600
C997        C  0.56096070  0.51049312  0.53124900    -0.12300
C998        C  0.54073419  0.50033308  0.55130943     0.05000
C999        C  0.57574142  0.52060672  0.97934998     0.27400
C1000       C  0.58860012  0.50753871  0.97041974    -0.13000
C1001       C  0.60960273  0.51951771  0.95143561     0.05500
C1002       C  0.61767209  0.54455151  0.94066555    -0.09000
C1003       C  0.60427346  0.55739103  0.94930819     0.06300
C1004       C  0.58354159  0.54549932  0.96875555    -0.13300
Br1005     Br  0.59640724  0.52717804  0.54404134    -0.05400
Br1006     Br  0.47412630  0.47162038  0.49915570     0.00200
Br1007     Br  0.62819181  0.50195690  0.94211933     0.00700
Br1008     Br  0.56575461  0.56327201  0.98130768    -0.03700
Br1009     Br  0.54867394  0.50150362  0.59153366     0.00800
Br1010     Br  0.52076227  0.48984195  0.95128399    -0.03000
Br1011     Br  0.57752070  0.47324938  0.98475439    -0.03900
Br1012     Br  0.61334097  0.59081740  0.93383509     0.00100
C1013       C  0.44258085  0.54933815  0.61227567     0.01500
C1014       C  0.42338490  0.54947183  0.59466140     0.04300
C1015       C  0.41916148  0.57061201  0.59519365    -0.11800
C1016       C  0.43475139  0.59224820  0.61237830     0.23600
C1017       C  0.45512937  0.59302370  0.62838076    -0.12300
C1018       C  0.45882631  0.57148377  0.62873442     0.05000
C1019       C  0.42904532  0.61373970  0.61426139     0.27400
C1020       C  0.43783534  0.63280596  0.59283452    -0.13000
C1021       C  0.43124125  0.65235344  0.59385706     0.05500
C1022       C  0.41624081  0.65329220  0.61674617    -0.09000
C1023       C  0.40782020  0.63438751  0.63846150     0.06300
C1024       C  0.41406438  0.61457453  0.63707740    -0.13300
Br1025     Br  0.47760779  0.62356715  0.65018800    -0.05400
Br1026     Br  0.40338513  0.52115754  0.56877746     0.00200
Br1027     Br  0.44210769  0.67723395  0.56310550     0.00700
Br1028     Br  0.40239302  0.58859107  0.66662295    -0.03700
Br1029     Br  0.48502591  0.57196082  0.65334732     0.00800
Br1030     Br  0.39151104  0.56974593  0.57290744    -0.03000
Br1031     Br  0.45918388  0.63217894  0.56223078    -0.03900
Br1032     Br  0.38910737  0.63637275  0.67107533     0.00100
C1033       C  0.72991721  0.40302943  0.86035291     0.01500
C1034       C  0.71318884  0.40435132  0.83988071     0.04300
C1035       C  0.70921630  0.42564604  0.83970483    -0.11800
C1036       C  0.72269356  0.44604974  0.85915073     0.23600
C1037       C  0.73988074  0.44511432  0.87903532    -0.12300
C1038       C  0.74301531  0.42337872  0.88016678     0.05000
C1039       C  0.71760955  0.46780615  0.86012847     0.27400
C1040       C  0.73221350  0.48990591  0.84328130    -0.13000
C1041       C  0.72800293  0.51100085  0.84530003     0.05500
C1042       C  0.70922589  0.51006416  0.86444815    -0.09000
C1043       C  0.69480558  0.48783534  0.88142444     0.06300
C1044       C  0.69884622  0.46670074  0.87906627    -0.13300
Br1045     Br  0.75883792  0.47362924  0.90499956    -0.05400
Br1046     Br  0.69650712  0.37775307  0.81121602     0.00200
Br1047     Br  0.74751935  0.54067586  0.82096997     0.00700
Br1048     Br  0.67906158  0.43619322  0.90216818    -0.03700
Br1049     Br  0.76382436  0.42093529  0.91037344     0.00800
Br1050     Br  0.68506074  0.42688089  0.81319772    -0.03000
Br1051     Br  0.75810520  0.49117444  0.81764811    -0.03900
Br1052     Br  0.67082765  0.48666135  0.90954841     0.00100
C1053       C  0.44960080  0.74642423  0.61743555     0.01500
C1054       C  0.45116583  0.76400786  0.59629279     0.04300
C1055       C  0.47238347  0.78927845  0.59589255    -0.11800
C1056       C  0.49218336  0.79692082  0.61639263     0.23600
C1057       C  0.49088680  0.77921576  0.63714892    -0.12300
C1058       C  0.46953222  0.75408696  0.63785521     0.05000
C1059       C  0.51382767  0.82391030  0.61699005     0.27400
C1060       C  0.53477755  0.83191234  0.59809700    -0.13000
C1061       C  0.55538766  0.85751213  0.59900324     0.05500
C1062       C  0.55549669  0.87500535  0.61953092    -0.09000
C1063       C  0.53451710  0.86678648  0.63857696     0.06300
C1064       C  0.51354815  0.84143973  0.63692511    -0.13300
Br1065     Br  0.51827690  0.78960723  0.66490942    -0.05400
Br1066     Br  0.42480844  0.75333150  0.56720960     0.00200
Br1067     Br  0.58297994  0.86855724  0.57136782     0.00700
Br1068     Br  0.48445285  0.83037744  0.66234430    -0.03700
Br1069     Br  0.46700059  0.73074294  0.66794577     0.00800
Br1070     Br  0.47432954  0.81362577  0.56747189    -0.03000
Br1071     Br  0.53535220  0.80753753  0.57136794    -0.03900
Br1072     Br  0.53520092  0.88935581  0.66854088     0.00100
C1073       C  0.69692723  0.30943326  0.86262911     0.01500
C1074       C  0.69374129  0.29281590  0.83968189     0.04300
C1075       C  0.67434531  0.26674904  0.84080231    -0.11800
C1076       C  0.65756162  0.25749983  0.86443855     0.23600
C1077       C  0.66049047  0.27417607  0.88723418    -0.12300
C1078       C  0.68017315  0.30017057  0.88634772     0.05000
C1079       C  0.63569886  0.23068663  0.86454875     0.27400
C1080       C  0.61201301  0.22540168  0.85256999    -0.13000
C1081       C  0.59063065  0.20030361  0.85374213     0.05500
C1082       C  0.59265953  0.18021949  0.86774911    -0.09000
C1083       C  0.61697530  0.18567202  0.87904606     0.06300
C1084       C  0.63836286  0.21083717  0.87724847    -0.13300
Br1085     Br  0.63752177  0.26115821  0.91967658    -0.05400
Br1086     Br  0.71490527  0.30624451  0.80591395     0.00200
Br1087     Br  0.55924243  0.19417433  0.83467894     0.00700
Br1088     Br  0.67149025  0.21861827  0.89266396    -0.03700
Br1089     Br  0.68437558  0.32286652  0.91781636     0.00800
Br1090     Br  0.67075835  0.24360681  0.81011720    -0.03000
Br1091     Br  0.60902092  0.25304170  0.83479210    -0.03900
Br1092     Br  0.62159543  0.15963554  0.89834796     0.00100
C1093       C  0.54464563  0.05504407  0.95503681     0.01500
C1094       C  0.54711202  0.06240106  0.98406830     0.04300
C1095       C  0.55676277  0.05173233  0.00415050    -0.11800
C1096       C  0.56382071  0.03354485  0.99533671     0.23600
C1097       C  0.56035862  0.02538329  0.96658914    -0.12300
C1098       C  0.55111733  0.03633133  0.94639311     0.05000
C1099       C  0.57541011  0.02290591  0.51573905     0.27400
C1100       C  0.60231405  0.03637668  0.52004531    -0.13000
C1101       C  0.61371332  0.02715077  0.53973329     0.05500
C1102       C  0.59847201  0.00306226  0.55354783    -0.09000
C1103       C  0.57141050  0.98920709  0.54835580     0.06300
C1104       C  0.55994878  0.99965974  0.53043471    -0.13300
Br1105     Br  0.56795861  0.99883986  0.95515177    -0.05400
Br1106     Br  0.53840307  0.08799297  0.99611962     0.00200
Br1107     Br  0.64985657  0.04887423  0.54891136     0.00700
Br1108     Br  0.52290898  0.98217142  0.52582026    -0.03700
Br1109     Br  0.54664458  0.02506110  0.90703154     0.00800
Br1110     Br  0.56113716  0.06216693  0.54330893    -0.03000
Br1111     Br  0.62368793  0.06863632  0.99920604    -0.03900
Br1112     Br  0.54960012  0.95502802  0.56392482     0.00100
C1113       C  0.60122850  0.00168356  0.70418306     0.01500
C1114       C  0.58673719  0.01264899  0.69330762     0.04300
C1115       C  0.57507489  0.02216522  0.71211563    -0.11800
C1116       C  0.57810122  0.02120994  0.74187247     0.23600
C1117       C  0.59321264  0.01110532  0.75281118    -0.12300
C1118       C  0.60497737  0.00159994  0.73404124     0.05000
C1119       C  0.56616011  0.03175102  0.76161145     0.27400
C1120       C  0.57959203  0.05813389  0.76877928    -0.13000
C1121       C  0.56862812  0.06820122  0.78785898     0.05500
C1122       C  0.54394827  0.05190404  0.79982064    -0.09000
C1123       C  0.53003653  0.02561037  0.79154608     0.06300
C1124       C  0.54131928  0.01554827  0.77280624    -0.13300
Br1125     Br  0.59753750  0.01018609  0.79365937    -0.05400
Br1126     Br  0.58435151  0.01653877  0.65251637     0.00200
Br1127     Br  0.58708943  0.10476403  0.79612712     0.00700
Br1128     Br  0.52303517  0.97941992  0.76259920    -0.03700
Br1129     Br  0.62586424  0.98831131  0.74962169     0.00800
Br1130     Br  0.55502769  0.03677895  0.69721567    -0.03000
Br1131     Br  0.61306219  0.08045622  0.75209097    -0.03900
Br1132     Br  0.49582565  0.00290889  0.80624248     0.00100
C1133       C  0.22898718  0.67084085  0.63218810     0.01500
C1134       C  0.23831975  0.66077013  0.65343168     0.04300
C1135       C  0.26367915  0.66495920  0.65169862    -0.11800
C1136       C  0.28006446  0.67974102  0.62914804     0.23600
C1137       C  0.27104162  0.69045907  0.60840251    -0.12300
C1138       C  0.24543371  0.68557032  0.60953329     0.05000
C1139       C  0.30647688  0.68323504  0.62688112     0.27400
C1140       C  0.32679232  0.70204285  0.64353954    -0.13000
C1141       C  0.35116469  0.70372533  0.64339366     0.05500
C1142       C  0.35596621  0.68771384  0.62498924    -0.09000
C1143       C  0.33563366  0.66934140  0.60763741     0.06300
C1144       C  0.31097560  0.66699755  0.60885434    -0.13300
Br1145     Br  0.29394535  0.71201128  0.57855213    -0.05400
Br1146     Br  0.21686655  0.64221413  0.68562244     0.00200
Br1147     Br  0.37713354  0.72682374  0.67017293     0.00700
Br1148     Br  0.28326292  0.64190078  0.58523715    -0.03700
Br1149     Br  0.23249122  0.69773324  0.57887365     0.00800
Br1150     Br  0.27615472  0.65045714  0.68021464    -0.03000
Br1151     Br  0.32127434  0.72605621  0.66586030    -0.03900
Br1152     Br  0.34135525  0.64797919  0.58102022     0.00100
C1153       C  0.79011285  0.37014450  0.86495073     0.01500
C1154       C  0.80929849  0.38776073  0.84610667     0.04300
C1155       C  0.83518199  0.39434427  0.84998869    -0.11800
C1156       C  0.84179224  0.38237719  0.87169437     0.23600
C1157       C  0.82268291  0.36433930  0.89008810    -0.12300
C1158       C  0.79694011  0.35857000  0.88713219     0.05000
C1159       C  0.86862589  0.38757024  0.87398984     0.27400
C1160       C  0.87615387  0.37254192  0.85797819    -0.13000
C1161       C  0.90158240  0.37726004  0.85977007     0.05500
C1162       C  0.91960366  0.39685637  0.87818103    -0.09000
C1163       C  0.91193859  0.41203236  0.89414448     0.06300
C1164       C  0.88649139  0.40743311  0.89185363    -0.13300
Br1165     Br  0.83196279  0.34754657  0.91927357    -0.05400
Br1166     Br  0.80014343  0.40171618  0.81377082     0.00200
Br1167     Br  0.91151031  0.35730878  0.83565896     0.00700
Br1168     Br  0.87577820  0.42809117  0.91328169    -0.03700
Br1169     Br  0.77160925  0.33587005  0.91459665     0.00800
Br1170     Br  0.86179345  0.41979345  0.82565341    -0.03000
Br1171     Br  0.85133357  0.34535435  0.83353390    -0.03900
Br1172     Br  0.93549775  0.43820692  0.92038145     0.00100
C1173       C  0.05122488  0.47933068  0.95752826     0.01500
C1174       C  0.06026971  0.50493796  0.94798549     0.04300
C1175       C  0.07163897  0.52564828  0.96744915    -0.11800
C1176       C  0.07359210  0.52097928  0.99659484     0.23600
C1177       C  0.06469645  0.49560666  0.00624142    -0.12300
C1178       C  0.05397946  0.47485489  0.98674728     0.05000
C1179       C  0.08533361  0.54366410  0.51755669     0.27400
C1180       C  0.11154440  0.55586516  0.52557645    -0.13000
C1181       C  0.12141125  0.57622806  0.54554840     0.05500
C1182       C  0.10520638  0.58502746  0.55677230    -0.09000
C1183       C  0.07891096  0.57268564  0.54867461     0.06300
C1184       C  0.06902978  0.55198502  0.52925308    -0.13300
Br1185     Br  0.06787638  0.49054258  0.54703547    -0.05400
Br1186     Br  0.05812548  0.51221571  0.90807985     0.00200
Br1187     Br  0.15726125  0.59226605  0.55683860     0.00700
Br1188     Br  0.03297797  0.53470633  0.51873456    -0.03700
Br1189     Br  0.04209284  0.44032007  0.00081036     0.00800
Br1190     Br  0.08442903  0.56062325  0.95440167    -0.03000
Br1191     Br  0.13237178  0.54293458  0.01026494    -0.03900
Br1192     Br  0.05576759  0.58291034  0.56538276     0.00100
C1193       C  0.04141642  0.47706762  0.80275080     0.01500
C1194       C  0.02762000  0.49020128  0.79683676     0.04300
C1195       C  0.03714088  0.51043374  0.77660586    -0.11800
C1196       C  0.05963918  0.51683307  0.76085208     0.23600
C1197       C  0.07241690  0.50267020  0.76519972    -0.12300
C1198       C  0.06401987  0.48360433  0.78668259     0.05000
C1199       C  0.07125986  0.53984918  0.74159826     0.27400
C1200       C  0.06096862  0.53885773  0.71408884    -0.13000
C1201       C  0.07275189  0.56063727  0.69596505     0.05500
C1202       C  0.09472705  0.58351884  0.70529864    -0.09000
C1203       C  0.10485770  0.58454893  0.73275606     0.06300
C1204       C  0.09320058  0.56284018  0.75085132    -0.13300
Br1205     Br  0.10194129  0.50992143  0.74182892    -0.05400
Br1206     Br  0.99500807  0.48018392  0.81525908     0.00200
Br1207     Br  0.05909395  0.55914488  0.65810506     0.00700
Br1208     Br  0.10750817  0.56449101  0.78836498    -0.03700
Br1209     Br  0.08529701  0.46846300  0.79525304     0.00800
Br1210     Br  0.01971169  0.52996737  0.77088985    -0.03000
Br1211     Br  0.03099661  0.50760264  0.70109532    -0.03900
Br1212     Br  0.13512949  0.61563162  0.74526649     0.00100
C1213       C  0.21408120  0.40049723  0.86938707     0.01500
C1214       C  0.21083025  0.41883065  0.85336288     0.04300
C1215       C  0.18693973  0.41816823  0.85343781    -0.11800
C1216       C  0.16620308  0.39944060  0.86962278     0.23600
C1217       C  0.16910638  0.38083164  0.88509486    -0.12300
C1218       C  0.19285911  0.38120882  0.88487470     0.05000
C1219       C  0.14177375  0.40017393  0.87169698     0.27400
C1220       C  0.13863490  0.41433407  0.89385423    -0.13000
C1221       C  0.11545758  0.41490247  0.89634547     0.05500
C1222       C  0.09505077  0.40097605  0.87679059    -0.09000
C1223       C  0.09832557  0.38682680  0.85445759     0.06300
C1224       C  0.12177137  0.38676111  0.85175157    -0.13300
Br1225     Br  0.14045387  0.35513288  0.90708367    -0.05400
Br1226     Br  0.23931566  0.44619383  0.83274306     0.00200
Br1227     Br  0.11261106  0.43619487  0.92560375     0.00700
Br1228     Br  0.12684204  0.36871560  0.82041798    -0.03700
Br1229     Br  0.19577204  0.35460880  0.90516176     0.00800
Br1230     Br  0.18262447  0.44345705  0.83211879    -0.03000
Br1231     Br  0.16658639  0.43353122  0.92038149    -0.03900
Br1232     Br  0.07045923  0.36644998  0.82813734     0.00100
C1233       C  0.37153880  0.43147539  0.54289783     0.01500
C1234       C  0.34628334  0.41050696  0.54618510     0.04300
C1235       C  0.32815810  0.40399139  0.52390791    -0.11800
C1236       C  0.33515020  0.41745046  0.99901640     0.23600
C1237       C  0.35999867  0.44054082  0.49598130    -0.12300
C1238       C  0.37826751  0.44667073  0.51793171     0.05000
C1239       C  0.31604845  0.41091017  0.97560520     0.27400
C1240       C  0.31344634  0.39314863  0.95427530    -0.13000
C1241       C  0.29781364  0.38943770  0.93018690     0.05500
C1242       C  0.28563677  0.40434645  0.92665430    -0.09000
C1243       C  0.28692965  0.42092850  0.94902047     0.06300
C1244       C  0.30184802  0.42385889  0.97360400    -0.13300
Br1245     Br  0.37058517  0.45676046  0.95962258    -0.05400
Br1246     Br  0.33665231  0.39069774  0.58108685     0.00200
Br1247     Br  0.29241598  0.36316106  0.90255759     0.00700
Br1248     Br  0.29934100  0.44317728  0.50441448    -0.03700
Br1249     Br  0.41231559  0.47650589  0.51434586     0.00800
Br1250     Br  0.29390271  0.37463871  0.52765460    -0.03000
Br1251     Br  0.33208056  0.37461044  0.95771063    -0.03900
Br1252     Br  0.27001651  0.44114998  0.94559347     0.00100
C1253       C  0.29368442  0.41360878  0.82267387     0.01500
C1254       C  0.31006464  0.43936583  0.81419435     0.04300
C1255       C  0.32665686  0.44488347  0.79063060    -0.11800
C1256       C  0.32775195  0.42467082  0.77627856     0.23600
C1257       C  0.31149857  0.39887362  0.78505536    -0.12300
C1258       C  0.29407232  0.39334317  0.80779300     0.05000
C1259       C  0.34583304  0.43034893  0.75192874     0.27400
C1260       C  0.33617855  0.42437952  0.72376007    -0.13000
C1261       C  0.35279530  0.42747323  0.70091361     0.05500
C1262       C  0.37960877  0.43841082  0.70576900    -0.09000
C1263       C  0.38944998  0.44563768  0.73386798     0.06300
C1264       C  0.37251966  0.44095875  0.75693053    -0.13300
Br1265     Br  0.31367687  0.37116389  0.76646633    -0.05400
Br1266     Br  0.31023233  0.46711514  0.83546815     0.00200
Br1267     Br  0.33827574  0.41520357  0.66334171     0.00700
Br1268     Br  0.38597343  0.44928874  0.79544225    -0.03700
Br1269     Br  0.27070279  0.35804672  0.81863124     0.00800
Br1270     Br  0.34791522  0.48013199  0.77811503    -0.03000
Br1271     Br  0.30015206  0.41252038  0.71644181    -0.03900
Br1272     Br  0.42625496  0.46358995  0.74088146     0.00100
C1273       C  0.92775530  0.65741857  0.61716590     0.01500
C1274       C  0.95093267  0.68016721  0.62385459     0.04300
C1275       C  0.97450792  0.68018362  0.62383951    -0.11800
C1276       C  0.97511072  0.65763624  0.61626310     0.23600
C1277       C  0.95211531  0.63530210  0.60796656    -0.12300
C1278       C  0.92844251  0.63509513  0.60870394     0.05000
C1279       C  0.99970825  0.65710740  0.61822838     0.27400
C1280       C  0.01879603  0.66899281  0.59703453    -0.13000
C1281       C  0.04292112  0.67045455  0.60031236     0.05500
C1282       C  0.04709269  0.65732560  0.62312461    -0.09000
C1283       C  0.02716054  0.64400900  0.64344093     0.06300
C1284       C  0.00418135  0.64510275  0.64174287    -0.13300
Br1285     Br  0.95313879  0.60491077  0.59597700    -0.05400
Br1286     Br  0.95043385  0.71157012  0.63194090     0.00200
Br1287     Br  0.07067990  0.69251712  0.57478407     0.00700
Br1288     Br  0.97882656  0.63052512  0.67193040    -0.03700
Br1289     Br  0.89683981  0.60383486  0.59935698     0.00800
Br1290     Br  0.00593383  0.71089696  0.63494396    -0.03000
Br1291     Br  0.01163040  0.68287984  0.56321109    -0.03900
Br1292     Br  0.03005982  0.62268947  0.67265171     0.00100
C1293       C  0.85943365  0.65703362  0.67687908     0.01500
C1294       C  0.85291771  0.63651747  0.69613772     0.04300
C1295       C  0.83698275  0.63317613  0.71983346    -0.11800
C1296       C  0.82784881  0.65053984  0.72463660     0.23600
C1297       C  0.83612529  0.67222517  0.70673217    -0.12300
C1298       C  0.85176443  0.67538673  0.68280593     0.05000
C1299       C  0.80780031  0.64458932  0.74687433     0.27400
C1300       C  0.78151162  0.62950203  0.73957271    -0.13000
C1301       C  0.76236752  0.62143519  0.76087721     0.05500
C1302       C  0.76927954  0.62901535  0.78970065    -0.09000
C1303       C  0.79568336  0.64517529  0.79669600     0.06300
C1304       C  0.81483271  0.65279535  0.77534922    -0.13300
Br1305     Br  0.82508757  0.69693306  0.71443189    -0.05400
Br1306     Br  0.86408907  0.61179213  0.68892505     0.00200
Br1307     Br  0.72692023  0.59823160  0.75047812     0.00700
Br1308     Br  0.85083362  0.67452917  0.78481535    -0.03700
Br1309     Br  0.86253584  0.70473243  0.65785312     0.00800
Br1310     Br  0.82631465  0.60391692  0.74486427    -0.03000
Br1311     Br  0.77185263  0.61960440  0.70015278    -0.03900
Br1312     Br  0.80582513  0.65772398  0.83526936     0.00100
C1313       C  0.76206907  0.61895565  0.95467164     0.01500
C1314       C  0.78013023  0.60996716  0.95497903     0.04300
C1315       C  0.79773675  0.61648309  0.97775507    -0.11800
C1316       C  0.79640647  0.63051215  0.50248955     0.23600
C1317       C  0.77837266  0.63881566  0.00172472    -0.12300
C1318       C  0.76164751  0.63377652  0.97828678     0.05000
C1319       C  0.81387367  0.63600306  0.52731967     0.27400
C1320       C  0.80783953  0.61690570  0.54832035    -0.13000
C1321       C  0.82489298  0.62168907  0.57125898     0.05500
C1322       C  0.84768625  0.64581177  0.57364910    -0.09000
C1323       C  0.85366428  0.66495613  0.55275282     0.06300
C1324       C  0.83690293  0.65994771  0.52942035    -0.13300
Br1325     Br  0.77483643  0.65578584  0.53615248    -0.05400
Br1326     Br  0.78036539  0.58703801  0.92581405     0.00200
Br1327     Br  0.81755423  0.59486914  0.59888939     0.00700
Br1328     Br  0.84608030  0.68515354  0.99810662    -0.03700
Br1329     Br  0.73922612  0.64845250  0.97904697     0.00800
Br1330     Br  0.82385685  0.60640541  0.97692266    -0.03000
Br1331     Br  0.77616940  0.58421931  0.54555339    -0.03900
Br1332     Br  0.88432292  0.69830238  0.55669561     0.00100
C1333       C  0.69249985  0.79369237  0.87945452     0.01500
C1334       C  0.67356883  0.77097812  0.89298893     0.04300
C1335       C  0.67638437  0.74897904  0.89377899    -0.11800
C1336       C  0.69801198  0.74959517  0.88096041     0.23600
C1337       C  0.71740723  0.77256613  0.86846358    -0.12300
C1338       C  0.71466471  0.79459716  0.86772260     0.05000
C1339       C  0.69911464  0.72544544  0.87852839     0.27400
C1340       C  0.71325730  0.71971180  0.89838174    -0.13000
C1341       C  0.71326854  0.69620550  0.89644782     0.05500
C1342       C  0.69848562  0.67797246  0.87506876    -0.09000
C1343       C  0.68467353  0.68410092  0.85485611     0.06300
C1344       C  0.68525015  0.70786678  0.85649914    -0.13300
Br1345     Br  0.74754113  0.77367604  0.85204919    -0.05400
Br1346     Br  0.64307388  0.76939308  0.90908448     0.00200
Br1347     Br  0.73491263  0.68999447  0.92212095     0.00700
Br1348     Br  0.66672569  0.71644399  0.82871491    -0.03700
Br1349     Br  0.74167381  0.82628131  0.85135983     0.00800
Br1350     Br  0.65036501  0.71762912  0.91176401    -0.03000
Br1351     Br  0.73248761  0.74412427  0.92828178    -0.03900
Br1352     Br  0.66374048  0.65977045  0.82550699     0.00100
C1353       C  0.67277585  0.93170660  0.54344082     0.01500
C1354       C  0.67488971  0.90921121  0.54809404     0.04300
C1355       C  0.67887148  0.89659051  0.52491712    -0.11800
C1356       C  0.68179492  0.90730248  0.99680544     0.23600
C1357       C  0.67945170  0.92919557  0.99161304    -0.12300
C1358       C  0.67691812  0.94218914  0.51523328     0.05000
C1359       C  0.68307322  0.89209079  0.97251317     0.27400
C1360       C  0.70692972  0.89492011  0.96381424    -0.13000
C1361       C  0.70781375  0.88029481  0.94072677     0.05500
C1362       C  0.68488648  0.86297105  0.92637280    -0.09000
C1363       C  0.66103361  0.85977447  0.93538300     0.06300
C1364       C  0.66011246  0.87442304  0.95834613    -0.13300
Br1365     Br  0.68152180  0.94110704  0.95269556    -0.05400
Br1366     Br  0.67285946  0.89485519  0.58579529     0.00200
Br1367     Br  0.74039074  0.88432522  0.92823845     0.00700
Br1368     Br  0.62746170  0.87069012  0.97009891    -0.03700
Br1369     Br  0.67521093  0.97291082  0.50605094     0.00800
Br1370     Br  0.67961616  0.86489613  0.53077678    -0.03000
Br1371     Br  0.73728129  0.91483559  0.48613671    -0.03900
Br1372     Br  0.62965302  0.83506963  0.91631965     0.00100
C1373       C  0.68704978  0.86013761  0.82231760     0.01500
C1374       C  0.70527638  0.88639702  0.81743421     0.04300
C1375       C  0.70334648  0.89892535  0.79289470    -0.11800
C1376       C  0.68355696  0.88515937  0.77285923     0.23600
C1377       C  0.66629239  0.85859264  0.77678912    -0.12300
C1378       C  0.66785813  0.84610418  0.80162005     0.05000
C1379       C  0.67885526  0.89921820  0.74968126     0.27400
C1380       C  0.66314430  0.91007738  0.75528240    -0.13000
C1381       C  0.65722497  0.92224452  0.73325995     0.05500
C1382       C  0.66800096  0.92477441  0.70578527    -0.09000
C1383       C  0.68383626  0.91391657  0.70019771     0.06300
C1384       C  0.68917389  0.90107817  0.72214270    -0.13300
Br1385     Br  0.63954690  0.83983566  0.74882430    -0.05400
Br1386     Br  0.73295915  0.90538583  0.84437361     0.00200
Br1387     Br  0.63208935  0.93283638  0.74019112     0.00700
Br1388     Br  0.71052304  0.88594958  0.71467320    -0.03700
Br1389     Br  0.64217384  0.81050586  0.80835295     0.00800
Br1390     Br  0.72682004  0.93534766  0.78740004    -0.03000
Br1391     Br  0.64949046  0.90797128  0.79327422    -0.03900
Br1392     Br  0.69844620  0.91672944  0.66267315     0.00100
C1393       C  0.84577653  0.17240978  0.63393296     0.01500
C1394       C  0.84134588  0.15255835  0.65387105     0.04300
C1395       C  0.81815161  0.12859978  0.65291897    -0.11800
C1396       C  0.80010536  0.12334897  0.63096562     0.23600
C1397       C  0.80501991  0.14212974  0.61008999    -0.12300
C1398       C  0.82686703  0.16693364  0.61233174     0.05000
C1399       C  0.77515455  0.09861143  0.63060985     0.27400
C1400       C  0.77278152  0.07706191  0.61563517    -0.13000
C1401       C  0.74882772  0.05394548  0.61468916     0.05500
C1402       C  0.72710075  0.05243706  0.62845349    -0.09000
C1403       C  0.72947445  0.07410953  0.64319142     0.06300
C1404       C  0.75351007  0.09702030  0.64456185    -0.13300
Br1405     Br  0.78150484  0.13354148  0.57819306    -0.05400
Br1406     Br  0.86686292  0.15674043  0.68207742     0.00200
Br1407     Br  0.74600758  0.02410971  0.59534310     0.00700
Br1408     Br  0.75692109  0.12637566  0.66555845    -0.03700
Br1409     Br  0.82841890  0.19332008  0.58703388     0.00800
Br1410     Br  0.81066323  0.10264830  0.68179633    -0.03000
Br1411     Br  0.80242893  0.07941936  0.59641281    -0.03900
Br1412     Br  0.69943279  0.07290244  0.66011342     0.00100
C1413       C  0.91474069  0.24455791  0.69017462     0.01500
C1414       C  0.94186485  0.25674040  0.69327338     0.04300
C1415       C  0.95407282  0.27262992  0.71707595    -0.11800
C1416       C  0.93924207  0.27616719  0.73802973     0.23600
C1417       C  0.91210720  0.26272029  0.73600004    -0.12300
C1418       C  0.89983609  0.24717048  0.71197740     0.05000
C1419       C  0.95209984  0.29608293  0.76049679     0.27400
C1420       C  0.96057895  0.29030926  0.78614501    -0.13000
C1421       C  0.97129994  0.30898769  0.80796799     0.05500
C1422       C  0.97354409  0.33339628  0.80408608    -0.09000
C1423       C  0.96578618  0.33942375  0.77808837     0.06300
C1424       C  0.95526121  0.32085345  0.75624560    -0.13300
Br1425     Br  0.89194058  0.26697103  0.76551706    -0.05400
Br1426     Br  0.96254893  0.25221370  0.66463069     0.00200
Br1427     Br  0.98383604  0.30162401  0.84272639     0.00700
Br1428     Br  0.94535973  0.32935595  0.72027708    -0.03700
Br1429     Br  0.86293673  0.23207371  0.70774945     0.00800
Br1430     Br  0.99123134  0.29073417  0.72036837    -0.03000
Br1431     Br  0.95786139  0.25701443  0.79103394    -0.03900
Br1432     Br  0.96872026  0.37285999  0.77276576     0.00100
C1433       C  0.96997596  0.33977485  0.96920420     0.01500
C1434       C  0.98284890  0.33039336  0.98667752     0.04300
C1435       C  0.96995712  0.31407526  0.01007309    -0.11800
C1436       C  0.94432888  0.30675312  0.51627657     0.23600
C1437       C  0.93083717  0.31516069  0.99810789    -0.12300
C1438       C  0.94398321  0.33246450  0.97556483     0.05000
C1439       C  0.93043526  0.28848623  0.54012728     0.27400
C1440       C  0.92105568  0.26184982  0.53656325    -0.13000
C1441       C  0.91116934  0.24495821  0.56013535     0.05500
C1442       C  0.90911686  0.25444134  0.58718467    -0.09000
C1443       C  0.91609016  0.28079574  0.58984056     0.06300
C1444       C  0.92734431  0.29780921  0.56662945    -0.13300
Br1445     Br  0.89483687  0.30359150  0.00513136    -0.05400
Br1446     Br  0.01766095  0.33854383  0.97796027     0.00200
Br1447     Br  0.90215881  0.20933571  0.55520734     0.00700
Br1448     Br  0.93856227  0.33403125  0.57110194    -0.03700
Br1449     Br  0.92649808  0.34734815  0.95490331     0.00800
Br1450     Br  0.98812517  0.30228918  0.53521692    -0.03000
Br1451     Br  0.92128699  0.24774162  0.99954117    -0.03900
Br1452     Br  0.90899794  0.29380655  0.62458211     0.00100
C1453       C  0.30037696  0.88810187  0.88009114     0.01500
C1454       C  0.32350271  0.88983714  0.87028809     0.03300
C1455       C  0.34659660  0.91366893  0.87088204    -0.11800
C1456       C  0.34686943  0.93550091  0.88262326     0.23600
C1457       C  0.32390812  0.93368581  0.89300356    -0.12300
C1458       C  0.30059897  0.91008379  0.89135455     0.05000
C1459       C  0.37132393  0.96043726  0.88369332     0.27400
C1460       C  0.38929410  0.96531450  0.90571012    -0.13000
C1461       C  0.41324985  0.98835891  0.90571182     0.05500
C1462       C  0.41899968  0.00689804  0.88394163    -0.09000
C1463       C  0.40031929  0.00237556  0.86267047     0.06300
C1464       C  0.37678167  0.97898144  0.86227837    -0.13300
Br1465     Br  0.32451110  0.96365459  0.90927056    -0.05400
Br1466     Br  0.32404305  0.85938955  0.85773650     0.00200
Br1467     Br  0.43846448  0.99344275  0.93468666     0.00700
Br1468     Br  0.35203634  0.97195737  0.83206980    -0.03700
Br1469     Br  0.26882815  0.90806171  0.90362929     0.00800
Br1470     Br  0.37787103  0.91664433  0.85522290    -0.03000
Br1471     Br  0.38105805  0.94004793  0.93557060    -0.03900
Br1472     Br  0.40612224  0.02855615  0.83466759     0.00100
C1473       C  0.23123605  0.81330373  0.92985750     0.01500
C1474       C  0.24662558  0.80771288  0.94818117     0.04300
C1475       C  0.23547850  0.79165022  0.97210146    -0.11800
C1476       C  0.20893405  0.78098575  0.97774466     0.23600
C1477       C  0.19360377  0.78673357  0.95964822    -0.12300
C1478       C  0.20474081  0.80300988  0.93586299     0.05000
C1479       C  0.19683038  0.76270328  0.00189809     0.27400
C1480       C  0.18627074  0.73604048  0.99728889    -0.13000
C1481       C  0.17557273  0.71887294  0.52044802     0.05500
C1482       C  0.17369739  0.72797614  0.54780447    -0.09000
C1483       C  0.18367409  0.75474763  0.55195476     0.06300
C1484       C  0.19550763  0.77214981  0.52912945    -0.13300
Br1485     Br  0.15708940  0.77136499  0.96696353    -0.05400
Br1486     Br  0.28256752  0.82024125  0.93941523     0.00200
Br1487     Br  0.16418507  0.68278036  0.51436117     0.00700
Br1488     Br  0.20968216  0.80876968  0.53484649    -0.03700
Br1489     Br  0.18367816  0.81145122  0.91184196     0.00800
Br1490     Br  0.25628351  0.78317793  0.99643969    -0.03000
Br1491     Br  0.18802121  0.72369594  0.95962396    -0.03900
Br1492     Br  0.18014510  0.76770376  0.58838984     0.00100
C1493       C  0.23271633  0.81559721  0.82560746     0.01500
C1494       C  0.24239810  0.80090210  0.81265117     0.04300
C1495       C  0.23023685  0.78611261  0.78822541    -0.11800
C1496       C  0.20729212  0.78453745  0.77799993     0.23600
C1497       C  0.19766066  0.79933637  0.79090049    -0.12300
C1498       C  0.21087404  0.81549718  0.81416571     0.05000
C1499       C  0.19231743  0.76563407  0.75533729     0.27400
C1500       C  0.19334063  0.77373893  0.72688218    -0.13000
C1501       C  0.18029030  0.75536935  0.70527843     0.05500
C1502       C  0.16738111  0.72871192  0.71179532    -0.09000
C1503       C  0.16585029  0.72074313  0.74057090     0.06300
C1504       C  0.17780509  0.73923795  0.76230276    -0.13300
Br1505     Br  0.16555096  0.79614798  0.77789183    -0.05400
Br1506     Br  0.27090136  0.79923460  0.82975457     0.00200
Br1507     Br  0.17923036  0.76700449  0.66708524     0.00700
Br1508     Br  0.17498241  0.72849852  0.80178049    -0.03700
Br1509     Br  0.19891894  0.83718537  0.83078129     0.00800
Br1510     Br  0.24432736  0.76709302  0.76941570    -0.03000
Br1511     Br  0.21336421  0.80995858  0.71745878    -0.03900
Br1512     Br  0.14925265  0.68461009  0.75052133     0.00100
C1513       C  0.43591400  0.37010318  0.62616385     0.01500
C1514       C  0.44552234  0.36111941  0.60384247     0.04300
C1515       C  0.44384464  0.33682305  0.60597532    -0.11800
C1516       C  0.43420174  0.32199418  0.63101659     0.23600
C1517       C  0.42496589  0.33083860  0.65345113    -0.12300
C1518       C  0.42500273  0.35435326  0.65073738     0.05000
C1519       C  0.43494983  0.29763288  0.63392827     0.27400
C1520       C  0.41293639  0.27367696  0.62754036    -0.13000
C1521       C  0.41472577  0.25105830  0.62698699     0.05500
C1522       C  0.43855276  0.25243720  0.63255450    -0.09000
C1523       C  0.46022848  0.27617317  0.64021964     0.06300
C1524       C  0.45837543  0.29869645  0.64113296    -0.13300
Br1525     Br  0.41284334  0.31081675  0.68819371    -0.05400
Br1526     Br  0.46304404  0.38244987  0.57108663     0.00200
Br1527     Br  0.38460596  0.21810753  0.61896991     0.00700
Br1528     Br  0.48806738  0.33122579  0.65161338    -0.03700
Br1529     Br  0.40879369  0.36383056  0.68044077     0.00800
Br1530     Br  0.45515214  0.32370917  0.57468696    -0.03000
Br1531     Br  0.38057826  0.27205053  0.61898382    -0.03900
Br1532     Br  0.49283778  0.27801904  0.64806219     0.00100
C1533       C  0.47211383  0.12131486  0.79276081     0.01500
C1534       C  0.46019913  0.13621463  0.79814353     0.04300
C1535       C  0.45519674  0.14858370  0.77544584    -0.11800
C1536       C  0.45995918  0.14430659  0.74701146     0.23600
C1537       C  0.46950560  0.12741506  0.74141019    -0.12300
C1538       C  0.47661218  0.11682416  0.76417939     0.05000
C1539       C  0.45685257  0.15891887  0.72307212     0.27400
C1540       C  0.43211512  0.15208441  0.71250895    -0.13000
C1541       C  0.42962708  0.16568119  0.68926135     0.05500
C1542       C  0.45182139  0.18522426  0.67570490    -0.09000
C1543       C  0.47650205  0.19192500  0.68602438     0.06300
C1544       C  0.47900483  0.17935034  0.71021957    -0.13300
Br1545     Br  0.47344625  0.11937627  0.70234951    -0.05400
Br1546     Br  0.44962856  0.13884172  0.83643844     0.00200
Br1547     Br  0.39587656  0.15736321  0.67551924     0.00700
Br1548     Br  0.51279454  0.19025801  0.72599964    -0.03700
Br1549     Br  0.49471918  0.09833816  0.75581067     0.00800
Br1550     Br  0.44305516  0.17240171  0.78345395    -0.03000
Br1551     Br  0.40172335  0.12373229  0.72932276    -0.03900
Br1552     Br  0.50684361  0.21802945  0.66667729     0.00100
C1553       C  0.47975704  0.13646218  0.95382554     0.01500
C1554       C  0.45736005  0.13854088  0.95081470     0.04300
C1555       C  0.45118771  0.15164563  0.97170690    -0.11800
C1556       C  0.46660023  0.16160458  0.49573973     0.23600
C1557       C  0.48974459  0.16060460  0.99866581    -0.12300
C1558       C  0.49614581  0.14793673  0.97756145     0.05000
C1559       C  0.45834464  0.17196783  0.51997480     0.27400
C1560       C  0.46906721  0.19878950  0.52377363    -0.13000
C1561       C  0.46493553  0.20853799  0.54952910     0.05500
C1562       C  0.44929462  0.19129535  0.57127114    -0.09000
C1563       C  0.43669711  0.16441118  0.56611812     0.06300
C1564       C  0.44156573  0.15482855  0.54082305    -0.13300
Br1565     Br  0.51166822  0.17522579  0.03178608    -0.05400
Br1566     Br  0.43438293  0.12214443  0.91896481     0.00200
Br1567     Br  0.48255021  0.24544624  0.55547978     0.00700
Br1568     Br  0.42598997  0.11880273  0.03511385    -0.03700
Br1569     Br  0.52762716  0.14659776  0.98096733     0.00800
Br1570     Br  0.41989033  0.15338141  0.46751724    -0.03000
Br1571     Br  0.49007886  0.22205519  0.49388433    -0.03900
Br1572     Br  0.41218653  0.14036041  0.59336106     0.00100
loop_ 
_geom_bond_atom_site_label_1 
_geom_bond_atom_site_label_2 
_geom_bond_distance 
_geom_bond_site_symmetry_2 
_ccdc_geom_bond_type 
C1            N2   1.360       .  A
C1            N6   1.359       .  A
C1          C736   1.469       .  S
N2            C3   1.357       .  A
C3            N4   1.360       .  A
C3          C776   1.486       .  S
N4            C5   1.356       .  A
C5            N6   1.354       .  A
C5          C756   1.471       .  S
C7            N8   1.359       .  A
C7           N12   1.357       .  A
C7          C667   1.471       .  S
N8            C9   1.357       .  A
C9           N10   1.355       .  A
C9          C707   1.466       .  S
N10          C11   1.355       .  A
C11          N12   1.357       .  A
C11         C687   1.476       .  S
C13          N14   1.361       .  A
C13          N18   1.362       .  A
C13         C607   1.503       .  S
N14          C15   1.358       .  A
C15          N16   1.354       .  A
C15         C656   1.490       .  S
N16          C17   1.355       .  A
C17          N18   1.360       .  A
C17         C627   1.481       .  S
C19          N20   1.362       .  A
C19          N24   1.357       .  A
C19         C547   1.473       .  S
N20          C21   1.359       .  A
C21          N22   1.355       .  A
C21         C587   1.475       .  S
N22          C23   1.353       .  A
C23          N24   1.355       .  A
C23         C576   1.464       .  S
C25          N26   1.360       .  A
C25          N30   1.362       .  A
C25         C487   1.477       .  S
N26          C27   1.358       .  A
C27          N28   1.356       .  A
C27         C536   1.472       .  S
N28          C29   1.355       .  A
C29          N30   1.359       .  A
C29         C507   1.477       .  S
C31          N32   1.364       .  A
C31          N36   1.363       .  A
C31         C427   1.491       .  S
N32          C33   1.354       .  A
C33          N34   1.354       .  A
C33         C467   1.474       .  S
N34          C35   1.360       .  A
C35          N36   1.356       .  A
C35         C456   1.487       .  S
O37          C53   1.274       .  A
O37         Zn43   2.019       .  S
C38         C647   1.493       .  S
C38          O54   1.272       .  A
C38          O51   1.279   1_655  A
O39          C52   1.275       .  A
O39         Cd46   2.077   1_655  S
O40          C58   1.276       .  A
O40         Cd49   2.078       .  S
O41          C55   1.275       .  A
O41         Cd45   2.063       .  S
O42          C53   1.271   1_455  A
O42         Cd45   2.051       .  S
Zn43         O54   2.007       .  S
Zn43         O56   1.990       .  S
Zn43         O48   1.934   1_655  S
O44          C55   1.279       .  A
O44         Cd49   2.088       .  S
Cd45         O47   2.072       .  S
Cd45         O48   1.992       .  S
Cd46         O50   2.085       .  S
Cd46         O59   2.071       .  S
Cd46         O48   2.002       .  S
O47          C57   1.274       .  A
O48         Cd49   1.999       .  S
Cd49         O51   2.106       .  S
O50          C57   1.275       .  A
C52         C376   1.481       .  S
C52          O56   1.271       .  A
C53         C636   1.468       .  S
C55         C436   1.479       .  S
C57         C407   1.496       .  S
C58         C387   1.485       .  S
C58          O59   1.276       .  A
O60          C76   1.275       .  A
O60         Zn66   2.033       .  S
C61         C716   1.481       .  S
C61          O77   1.275       .  A
C61          O74   1.275       .  A
O62          C75   1.276       .  A
O62         Cd69   2.087       .  S
O63          C81   1.276       .  A
O63         Cd72   2.088       .  S
O64          C78   1.276       .  A
O64         Cd68   2.077       .  S
O65          C76   1.275       .  A
O65         Cd68   2.079       .  S
Zn66         O77   2.013       .  S
Zn66         O79   2.012       .  S
Zn66         O71   1.945       .  S
O67          C78   1.275       .  A
O67         Cd72   2.073       .  S
Cd68         O70   2.064       .  S
Cd68         O71   1.998       .  S
Cd69         O73   2.064       .  S
Cd69         O82   2.074       .  S
Cd69         O71   2.007       .  S
O70          C80   1.274       .  A
O71         Cd72   2.005       .  S
Cd72         O74   2.070       .  S
O73          C80   1.274       .  A
C75         C347   1.482       .  S
C75          O79   1.273       .  A
C76         C696   1.488       .  S
C78         C496   1.489       .  S
C80         C396   1.480       .  S
C81         C416   1.478       .  S
C81          O82   1.275       .  A
O83          C99   1.275       .  A
O83         Zn89   2.022       .  S
C84         C767   1.480       .  S
C84         O100   1.273       .  A
C84          O97   1.276       .  A
O85          C98   1.275       .  A
O85         Cd92   2.076       .  S
O86         C104   1.277       .  A
O86         Cd95   2.080       .  S
O87         C101   1.274       .  A
O87         Cd91   2.052       .  S
O88          C99   1.273       .  A
O88         Cd91   2.066       .  S
Zn89        O100   2.027       .  S
Zn89        O102   1.996       .  S
Zn89         O94   1.938       .  S
O90         C101   1.276       .  A
O90         Cd95   2.071       .  S
Cd91         O93   2.077       .  S
Cd91         O94   2.000       .  S
Cd92         O96   2.068       .  S
Cd92        O105   2.079       .  S
Cd92         O94   2.002       .  S
O93         C103   1.274       .  A
O94         Cd95   1.999       .  S
Cd95         O97   2.086       .  S
O96         C103   1.274       .  A
C98         C296   1.491       .  S
C98         O102   1.272       .  A
C99         C747   1.483       .  S
C101        C676   1.477       .  S
C103        C336   1.486       .  S
C104        C307   1.481       .  S
C104        O105   1.277       .  A
O106        C122   1.271       .  A
O106       Zn112   2.001       .  S
C107        C596   1.479       .  S
C107        O123   1.274       .  A
C107        O120   1.277       .  A
O108        C121   1.275       .  A
O108       Cd115   2.079       .  S
O109        C127   1.276       .  A
O109       Cd118   2.086       .  S
O110        C124   1.276       .  A
O110       Cd114   2.077   1_545  S
O111        C122   1.273       .  A
O111       Cd114   2.074       .  S
Zn112       O123   2.011       .  S
Zn112       O125   1.994       .  S
Zn112       O117   1.937       .  S
O113        C124   1.276       .  A
O113       Cd118   2.077   1_545  S
Cd114       O116   2.093       .  S
Cd114       O117   2.005       .  S
Cd115       O119   2.055       .  S
Cd115       O128   2.059       .  S
Cd115       O117   1.992       .  S
O116        C126   1.278       .  A
O117       Cd118   1.999       .  S
Cd118       O120   2.077       .  S
O119        C126   1.272       .  A
C121        C276   1.480       .  S
C121        O125   1.270       .  A
C122        C567   1.498       .  S
C124        C616   1.478       .  S
C126        C316   1.493   1_565  S
C127        C327   1.482   1_565  S
C127        O128   1.274       .  A
C129        N130   1.357       .  A
C129        N134   1.357       .  A
C129        C287   1.468       .  S
N130        C131   1.357       .  A
C131        N132   1.355       .  A
C131        C247   1.474       .  S
N132        C133   1.354       .  A
C133        N134   1.356       .  A
C133        C367   1.474       .  S
C135        N136   1.356       .  A
C135        N140   1.354       .  A
C135        C267   1.474       .  S
N136        C137   1.359       .  A
C137        N138   1.363       .  A
C137        C356   1.490       .  S
N138        C139   1.362       .  A
C139        N140   1.355       .  A
C139        C236   1.483       .  S
O141        C157   1.275       .  A
O141       Zn147   2.023       .  S
C142        C476   1.489       .  S
C142        O158   1.272       .  A
C142        O155   1.276       .  A
O143        C156   1.274       .  A
O143       Cd150   2.081       .  S
O144        C162   1.275       .  A
O144       Cd153   2.073       .  S
O145        C159   1.275       .  A
O145       Cd149   2.078       .  S
O146        C157   1.275       .  A
O146       Cd149   2.067       .  S
Zn147       O158   2.004       .  S
Zn147       O160   2.010       .  S
Zn147       O152   1.939       .  S
O148        C159   1.275       .  A
O148       Cd153   2.077       .  S
Cd149       O151   2.083       .  S
Cd149       O152   1.997       .  S
Cd150       O154   2.063       .  S
Cd150       O163   2.060       .  S
Cd150       O152   2.002       .  S
O151        C161   1.276       .  A
O152       Cd153   2.002       .  S
Cd153       O155   2.081       .  S
O154        C161   1.274       .  A
C156        C227   1.484       .  S
C156        O160   1.272       .  A
C157        C447   1.473       .  S
C159        C727   1.494       .  S
C161        C207   1.481       .  S
C162        C196   1.467       .  S
C162        O163   1.273       .  A
O164        C180   1.275       .  A
O164       Zn170   2.032       .  S
C165        C527   1.499       .  S
C165        O181   1.273       .  A
C165        O178   1.274       .  A
O166        C179   1.275       .  A
O166       Cd173   2.068       .  S
O167        C185   1.275       .  A
O167       Cd176   2.077       .  S
O168        C182   1.274       .  A
O168       Cd172   2.060       .  S
O169        C180   1.276       .  A
O169       Cd172   2.087       .  S
Zn170       O181   2.017       .  S
Zn170       O183   2.015       .  S
Zn170       O175   1.939       .  S
O171        C182   1.277       .  A
O171       Cd176   2.078       .  S
Cd172       O174   2.084       .  S
Cd172       O175   1.994       .  S
Cd173       O177   2.057       .  S
Cd173       O186   2.086       .  S
Cd173       O175   1.996       .  S
O174        C184   1.276       .  A
O175       Cd176   1.999       .  S
Cd176       O178   2.071       .  S
O177        C184   1.273       .  A
C179        C256   1.479       .  S
C179        O183   1.274       .  A
C180        C516   1.493       .  S
C182        C556   1.483       .  S
C184        C187   1.489       .  S
C185        C216   1.491       .  S
C185        O186   1.276       .  A
C187        C188   1.418       .  A
C187        C192   1.419       .  A
C188        C189   1.408       .  A
C188       Br200   1.929       .  S
C189        C190   1.406       .  A
C189       Br204   1.932       .  S
C190        C193   1.480       .  S
C190        C191   1.405       .  A
C191        C192   1.404       .  A
C191       Br199   1.933       .  S
C192       Br203   1.935       .  S
C193        C194   1.410       .  A
C193        C198   1.409       .  A
C194        C195   1.405       .  A
C194       Br205   1.930       .  S
C195        C196   1.407       .  A
C195       Br201   1.929       .  S
C196        C197   1.408       .  A
C197        C198   1.406       .  A
C197       Br206   1.929       .  S
C198       Br202   1.930       .  S
C207        C208   1.413       .  A
C207        C212   1.413       .  A
C208        C995   1.409   1_554  A
C208       Br220   1.929   1_554  S
C209        C994   1.408       .  A
C209        C996   1.408       .  A
C209       Br224   1.929       .  S
C210        C999   1.486   1_554  S
C210        C211   1.408       .  A
C210        C995   1.409   1_554  A
C211        C212   1.406       .  A
C211       Br219   1.931       .  S
C212       Br223   1.931       .  S
C213        C996   1.485       .  S
C213        C214   1.405       .  A
C213        C218   1.408       .  A
C214        C215   1.407       .  A
C214       Br225   1.932       .  S
C215        C216   1.416       .  A
C215       Br221   1.920       .  S
C216        C217   1.417       .  A
C217        C218   1.410       .  A
C217       Br226   1.931       .  S
C218       Br222   1.931       .  S
C227        C228   1.414       .  A
C227        C232   1.414       .  A
C228        C229   1.407       .  A
C228       Br240   1.933       .  S
C229        C230   1.408       .  A
C229       Br244   1.931       .  S
C230        C233   1.486       .  S
C230        C231   1.409       .  A
C231        C232   1.410       .  A
C231       Br239   1.930       .  S
C232       Br243   1.930       .  S
C233        C234   1.407       .  A
C233        C238   1.409       .  A
C234        C235   1.407       .  A
C234       Br245   1.931       .  S
C235        C236   1.416       .  A
C235       Br241   1.933       .  S
C236        C237   1.413       .  A
C237        C238   1.409       .  A
C237       Br246   1.930       .  S
C238       Br242   1.930       .  S
C247        C248   1.413       .  A
C247        C252   1.413       .  A
C248        C249   1.406       .  A
C248       Br260   1.932       .  S
C249        C250   1.407       .  A
C249       Br264   1.930       .  S
C250        C253   1.476       .  S
C250        C251   1.406       .  A
C251        C252   1.402       .  A
C251       Br259   1.932       .  S
C252       Br263   1.933       .  S
C253        C254   1.407       .  A
C253        C258   1.405       .  A
C254        C255   1.407       .  A
C254       Br265   1.929       .  S
C255        C256   1.415       .  A
C255       Br261   1.933       .  S
C256        C257   1.412       .  A
C257        C258   1.403       .  A
C257       Br266   1.920       .  S
C258       Br262   1.934       .  S
C267        C268   1.411       .  A
C267        C272   1.411       .  A
C268        C269   1.407       .  A
C268       Br280   1.930       .  S
C269        C270   1.409       .  A
C269       Br284   1.930       .  S
C270        C273   1.483       .  S
C270        C271   1.409       .  A
C271        C272   1.405       .  A
C271       Br279   1.931       .  S
C272       Br283   1.932       .  S
C273        C274   1.408       .  A
C273        C278   1.409       .  A
C274        C275   1.407       .  A
C274       Br285   1.932       .  S
C275        C276   1.416       .  A
C275       Br281   1.934       .  S
C276        C277   1.412       .  A
C277        C278   1.406       .  A
C277       Br286   1.931       .  S
C278       Br282   1.931       .  S
C287        C288   1.408       .  A
C287        C292   1.409       .  A
C288        C289   1.404       .  A
C288       Br300   1.930       .  S
C289        C290   1.407       .  A
C289       Br304   1.929       .  S
C290        C293   1.477       .  S
C290        C291   1.408       .  A
C291        C292   1.405       .  A
C291       Br299   1.931       .  S
C292       Br303   1.930       .  S
C293        C294   1.403       .  A
C293        C298   1.404       .  A
C294        C295   1.404       .  A
C294       Br305   1.935       .  S
C295        C296   1.424       .  A
C295       Br301   1.938       .  S
C296        C297   1.421       .  A
C297        C298   1.408       .  A
C297       Br306   1.933       .  S
C298       Br302   1.932       .  S
C307        C308   1.411       .  A
C307        C312   1.412       .  A
C308        C309   1.409       .  A
C308       Br320   1.929       .  S
C309        C310   1.410       .  A
C309      Br1110   1.928       .  S
C310       C1099   1.488       .  S
C310        C311   1.409       .  A
C311        C312   1.409       .  A
C311       Br319   1.930   1_545  S
C312       Br323   1.931       .  S
C313       C1096   1.487   1_554  S
C313        C314   1.408       .  A
C313        C318   1.405       .  A
C314        C315   1.410       .  A
C314      Br1111   1.931   1_554  S
C315        C316   1.418       .  A
C315       Br321   1.933       .  S
C316        C317   1.422   1_545  A
C317        C318   1.408   1_565  A
C317       Br326   1.936       .  S
C318       Br322   1.931   1_545  S
Br324      C1095   1.929       .  S
Br325      C1100   1.931       .  S
C327        C328   1.414       .  A
C327        C332   1.413       .  A
C328        C329   1.406       .  A
C328       Br340   1.934       .  S
C329        C330   1.407       .  A
C329       Br344   1.930       .  S
C330        C333   1.484       .  S
C330        C331   1.409       .  A
C331        C332   1.409       .  A
C331       Br339   1.931       .  S
C332       Br343   1.925   1_545  S
C333        C334   1.406       .  A
C333        C338   1.408       .  A
C334        C335   1.407       .  A
C334       Br345   1.932       .  S
C335        C336   1.416       .  A
C335       Br341   1.932       .  S
C336        C337   1.416       .  A
C337        C338   1.410       .  A
C337       Br346   1.931       .  S
C338       Br342   1.931   1_545  S
C347        C348   1.411       .  A
C347        C352   1.414       .  A
C348        C349   1.410       .  A
C348       Br360   1.930       .  S
C349        C350   1.411       .  A
C349       Br364   1.930       .  S
C350        C353   1.489       .  S
C350        C351   1.409       .  A
C351        C352   1.408       .  A
C351       Br359   1.930       .  S
C352       Br363   1.933       .  S
C353        C354   1.407       .  A
C353        C358   1.409       .  A
C354        C355   1.409       .  A
C354       Br365   1.931       .  S
C355        C356   1.418       .  A
C355       Br361   1.933       .  S
C356        C357   1.416       .  A
C357        C358   1.410       .  A
C357       Br366   1.931       .  S
C358       Br362   1.931       .  S
C367        C368   1.413       .  A
C367        C372   1.413       .  A
C368        C369   1.404       .  A
C368       Br380   1.932       .  S
C369        C370   1.406       .  A
C369       Br384   1.930       .  S
C370        C373   1.477       .  S
C370        C371   1.407       .  A
C371        C372   1.405       .  A
C371       Br379   1.931       .  S
C372       Br383   1.933       .  S
C373        C374   1.404       .  A
C373        C378   1.407       .  A
C374        C375   1.403       .  A
C374       Br385   1.933       .  S
C375        C376   1.418       .  A
C375       Br381   1.936       .  S
C376        C377   1.415       .  A
C377        C378   1.408       .  A
C377       Br386   1.931       .  S
C378       Br382   1.930       .  S
C387        C388   1.417       .  A
C387        C392   1.416       .  A
C388        C389   1.407       .  A
C388       Br400   1.934       .  S
C389        C390   1.406       .  A
C389       Br404   1.932       .  S
C390       C1179   1.482       .  S
C390        C391   1.407       .  A
C391        C392   1.408       .  A
C391      Br1185   1.931       .  S
C392       Br403   1.932       .  S
C393       C1176   1.484   1_554  S
C393        C394   1.409       .  A
C393        C398   1.407       .  A
C394        C395   1.408       .  A
C394      Br1191   1.930       .  S
C395        C396   1.415       .  A
C395       Br401   1.933       .  S
C396        C397   1.414       .  A
C397        C398   1.406       .  A
C397       Br406   1.934       .  S
C398       Br402   1.931       .  S
Br399      C1177   1.931       .  S
Br405      C1180   1.930       .  S
C407        C408   1.419       .  A
C407        C412   1.419       .  A
C408        C409   1.412       .  A
C408       Br420   1.933   1_455  S
C409        C410   1.410       .  A
C409       Br424   1.932       .  S
C410        C413   1.494       .  S
C410        C411   1.410       .  A
C411        C412   1.410       .  A
C411       Br419   1.933       .  S
C412       Br423   1.934       .  S
C413        C414   1.414       .  A
C413        C418   1.413       .  A
C414        C415   1.411       .  A
C414       Br425   1.930       .  S
C415        C416   1.410       .  A
C415       Br421   1.931       .  S
C416        C417   1.406       .  A
C417        C418   1.408       .  A
C417       Br426   1.927       .  S
C418       Br422   1.930       .  S
C427        C428   1.422       .  A
C427        C432   1.419       .  A
C428        C429   1.409       .  A
C428       Br440   1.934       .  S
C429        C430   1.406       .  A
C429       Br444   1.932       .  S
C430        C433   1.486       .  S
C430        C431   1.406       .  A
C431        C432   1.409       .  A
C431       Br439   1.931       .  S
C432       Br443   1.932       .  S
C433        C434   1.409       .  A
C433        C438   1.409       .  A
C434        C435   1.407       .  A
C434       Br445   1.929       .  S
C435        C436   1.411       .  A
C435       Br441   1.931       .  S
C436        C437   1.414       .  A
C437        C438   1.409       .  A
C437       Br446   1.932       .  S
C438       Br442   1.930       .  S
C447        C448   1.409       .  A
C447        C452   1.409       .  A
C448        C449   1.409       .  A
C448       Br460   1.928       .  S
C449       C1236   1.410   1_554  A
C449       Br464   1.927       .  S
C450        C453   1.485       .  S
C450       C1235   1.409       .  A
C450       C1237   1.410       .  A
C451        C452   1.405   1_556  A
C451       C1236   1.410       .  A
C451      Br1245   1.930       .  S
C452       Br463   1.931       .  S
C453        C454   1.407       .  A
C453        C458   1.407       .  A
C454        C455   1.406       .  A
C454       Br465   1.930       .  S
C455        C456   1.414       .  A
C455       Br461   1.933       .  S
C456        C457   1.418       .  A
C457        C458   1.410       .  A
C457       Br466   1.931       .  S
C458      Br1248   1.930       .  S
Br459      C1237   1.930       .  S
Br462      C1244   1.930   1_554  S
C467        C468   1.408       .  A
C467        C472   1.406       .  A
C468        C469   1.407       .  A
C468       Br480   1.930       .  S
C469        C470   1.410       .  A
C469       Br484   1.929       .  S
C470        C473   1.487       .  S
C470        C471   1.412       .  A
C471        C472   1.408       .  A
C471       Br479   1.931       .  S
C472       Br483   1.928       .  S
C473        C474   1.407       .  A
C473        C478   1.409       .  A
C474        C475   1.407       .  A
C474       Br485   1.932       .  S
C475        C476   1.419       .  A
C475       Br481   1.934       .  S
C476        C477   1.418       .  A
C477        C478   1.409       .  A
C477       Br486   1.935       .  S
C478       Br482   1.932       .  S
C487        C488   1.408       .  A
C487        C492   1.411       .  A
C488        C489   1.408       .  A
C488       Br500   1.929       .  S
C489        C490   1.411       .  A
C489       Br504   1.930   1_655  S
C490        C493   1.488       .  S
C490        C491   1.411       .  A
C491        C492   1.409       .  A
C491       Br499   1.930       .  S
C492       Br503   1.930       .  S
C493        C494   1.408   1_655  A
C493        C498   1.409   1_655  A
C494        C495   1.407       .  A
C494       Br505   1.929       .  S
C495        C496   1.416       .  A
C495       Br501   1.932       .  S
C496        C497   1.417       .  A
C497        C498   1.409       .  A
C497       Br506   1.933       .  S
C498       Br502   1.932   1_455  S
C507        C508   1.410       .  A
C507        C512   1.410       .  A
C508        C509   1.408       .  A
C508       Br520   1.931       .  S
C509        C510   1.411       .  A
C509       Br524   1.929       .  S
C510        C513   1.489       .  S
C510        C511   1.409       .  A
C511        C512   1.409       .  A
C511       Br519   1.928       .  S
C512       Br523   1.929       .  S
C513        C514   1.407       .  A
C513        C518   1.407       .  A
C514        C515   1.408       .  A
C514       Br525   1.932       .  S
C515        C516   1.416       .  A
C515       Br521   1.927       .  S
C516        C517   1.418       .  A
C517        C518   1.412       .  A
C517       Br526   1.930       .  S
C518       Br522   1.929       .  S
C527        C528   1.426       .  A
C527        C532   1.425       .  A
C528        C529   1.407       .  A
C528       Br540   1.937       .  S
C529       C1316   1.403       .  A
C529       Br544   1.934       .  S
C530        C533   1.484       .  S
C530       C1315   1.404   1_554  A
C530       C1317   1.405       .  A
C531        C532   1.409       .  A
C531       C1316   1.404       .  A
C531      Br1325   1.933       .  S
C532       Br543   1.935       .  S
C533        C534   1.409       .  A
C533        C538   1.409       .  A
C534        C535   1.406       .  A
C534       Br545   1.930       .  S
C535        C536   1.410       .  A
C535       Br541   1.931       .  S
C536        C537   1.408       .  A
C537        C538   1.408       .  A
C537       Br546   1.928       .  S
C538      Br1328   1.929   1_554  S
Br539      C1317   1.933       .  S
Br542      C1324   1.929       .  S
C547        C548   1.411       .  A
C547        C552   1.410       .  A
C548        C549   1.406       .  A
C548       Br560   1.930       .  S
C549        C550   1.409       .  A
C549       Br564   1.931       .  S
C550        C553   1.482       .  S
C550        C551   1.409       .  A
C551        C552   1.406       .  A
C551       Br559   1.929       .  S
C552       Br563   1.931       .  S
C553        C554   1.407       .  A
C553        C558   1.407       .  A
C554        C555   1.409       .  A
C554       Br565   1.930       .  S
C555        C556   1.415       .  A
C555       Br561   1.930       .  S
C556        C557   1.416       .  A
C557        C558   1.405       .  A
C557       Br566   1.934       .  S
C558       Br562   1.933       .  S
C567        C568   1.425       .  A
C567        C572   1.425       .  A
C568        C569   1.406       .  A
C568       Br580   1.935       .  S
C569       C1356   1.403   1_554  A
C569       Br584   1.935       .  S
C570        C573   1.479       .  S
C570        C571   1.403       .  A
C570       C1355   1.402       .  A
C571       C1358   1.409       .  A
C571       Br579   1.935       .  S
C572       C1357   1.408   1_554  A
C572       Br583   1.936       .  S
C573        C574   1.409       .  A
C573        C578   1.410       .  A
C574        C575   1.406       .  A
C574      Br1371   1.929       .  S
C575        C576   1.408       .  A
C575       Br581   1.930       .  S
C576        C577   1.406       .  A
C577        C578   1.403       .  A
C577       Br586   1.930       .  S
C578       Br582   1.930       .  S
Br585      C1360   1.929       .  S
C587        C588   1.412       .  A
C587        C592   1.410       .  A
C588        C589   1.406       .  A
C588       Br600   1.932       .  S
C589        C590   1.407       .  A
C589       Br604   1.929       .  S
C590        C593   1.481       .  S
C590        C591   1.409       .  A
C591        C592   1.408       .  A
C591       Br599   1.930       .  S
C592       Br603   1.929       .  S
C593        C594   1.407       .  A
C593        C598   1.408       .  A
C594        C595   1.403       .  A
C594       Br605   1.932       .  S
C595        C596   1.411       .  A
C595       Br601   1.927       .  S
C596        C597   1.413       .  A
C597        C598   1.409       .  A
C597       Br606   1.929       .  S
C598       Br602   1.928       .  S
C607        C608   1.426       .  A
C607        C612   1.425       .  A
C608        C609   1.412       .  A
C608       Br620   1.934       .  S
C609        C610   1.405       .  A
C609       Br624   1.933       .  S
C610        C613   1.487       .  S
C610        C611   1.403       .  A
C611        C612   1.407       .  A
C611       Br619   1.933       .  S
C612       Br623   1.936       .  S
C613        C614   1.409       .  A
C613        C618   1.410       .  A
C614        C615   1.409       .  A
C614       Br625   1.929       .  S
C615        C616   1.411       .  A
C615       Br621   1.930       .  S
C616        C617   1.410       .  A
C617        C618   1.407       .  A
C617       Br626   1.930       .  S
C618       Br622   1.930       .  S
C627        C628   1.415       .  A
C627        C632   1.414       .  A
C628        C629   1.406       .  A
C628       Br640   1.932       .  S
C629        C630   1.406       .  A
C629       Br644   1.931       .  S
C630        C633   1.481       .  S
C630        C631   1.408       .  A
C631        C632   1.407       .  A
C631       Br639   1.931       .  S
C632       Br643   1.931       .  S
C633        C634   1.409       .  A
C633        C638   1.410       .  A
C634        C635   1.407       .  A
C634       Br645   1.927       .  S
C635        C636   1.408       .  A
C635       Br641   1.929       .  S
C636        C637   1.408       .  A
C637        C638   1.403       .  A
C637       Br646   1.933       .  S
C638       Br642   1.932       .  S
C647        C648   1.415       .  A
C647        C652   1.420       .  A
C648        C649   1.412       .  A
C648       Br660   1.929   1_655  S
C649       C1436   1.410       .  A
C649      Br1450   1.931       .  S
C650        C653   1.491       .  S
C650       C1435   1.410       .  A
C650       C1437   1.407   1_554  A
C651        C652   1.409       .  A
C651       C1436   1.407       .  A
C651       Br659   1.932       .  S
C652       Br663   1.934       .  S
C653        C654   1.408       .  A
C653        C658   1.408       .  A
C654        C655   1.410       .  A
C654      Br1451   1.929   1_554  S
C655        C656   1.416       .  A
C655       Br661   1.932       .  S
C656        C657   1.420       .  A
C657        C658   1.409       .  A
C657       Br666   1.936       .  S
C658       Br662   1.931       .  S
Br664      C1435   1.931       .  S
Br665      C1440   1.929       .  S
C667        C668   1.410       .  A
C667        C672   1.409       .  A
C668        C669   1.404       .  A
C668       Br680   1.927       .  S
C669        C670   1.407       .  A
C669       Br684   1.932       .  S
C670        C673   1.477       .  S
C670        C671   1.408       .  A
C671        C672   1.405       .  A
C671       Br679   1.929       .  S
C672       Br683   1.929       .  S
C673        C674   1.408       .  A
C673        C678   1.406       .  A
C674        C675   1.406       .  A
C674       Br685   1.931       .  S
C675        C676   1.414   1_565  A
C675       Br681   1.933       .  S
C676        C677   1.415       .  A
C677        C678   1.403   1_545  A
C677       Br686   1.934       .  S
C678       Br682   1.932       .  S
C687        C688   1.412       .  A
C687        C692   1.412       .  A
C688        C689   1.406       .  A
C688       Br700   1.934       .  S
C689        C690   1.409       .  A
C689       Br704   1.929       .  S
C690        C693   1.484       .  S
C690        C691   1.409       .  A
C691        C692   1.407       .  A
C691       Br699   1.930       .  S
C692       Br703   1.931       .  S
C693        C694   1.407       .  A
C693       C1484   1.407       .  A
C694       C1481   1.408       .  A
C694       Br705   1.932       .  S
C695        C696   1.416       .  A
C695       C1480   1.408   1_554  A
C695       Br701   1.931       .  S
C696        C697   1.414       .  A
C697        C698   1.410       .  A
C697       Br706   1.925       .  S
C698       C1479   1.407       .  A
C698       Br702   1.931       .  S
C707        C708   1.407       .  A
C707        C712   1.407       .  A
C708        C709   1.404       .  A
C708       Br720   1.927       .  S
C709        C710   1.409       .  A
C709       Br724   1.931       .  S
C710        C713   1.479       .  S
C710        C711   1.409       .  A
C711        C712   1.405       .  A
C711       Br719   1.929       .  S
C712       Br723   1.928       .  S
C713        C714   1.406       .  A
C713        C718   1.408       .  A
C714        C715   1.406       .  A
C714       Br725   1.931       .  S
C715        C716   1.414       .  A
C715       Br721   1.928       .  S
C716        C717   1.415       .  A
C717        C718   1.405       .  A
C717       Br726   1.931       .  S
C718       Br722   1.933       .  S
C727        C728   1.420       .  A
C727        C732   1.421       .  A
C728        C729   1.408       .  A
C728       Br740   1.934       .  S
C729        C730   1.406       .  A
C729       Br744   1.934       .  S
C730        C733   1.484       .  S
C730        C731   1.405       .  A
C731        C732   1.410       .  A
C731       Br739   1.932       .  S
C732       Br743   1.933       .  S
C733        C734   1.410       .  A
C733        C738   1.409       .  A
C734        C735   1.408       .  A
C734       Br745   1.929       .  S
C735        C736   1.408       .  A
C735       Br741   1.929       .  S
C736        C737   1.408       .  A
C737        C738   1.405       .  A
C737       Br746   1.931       .  S
C738       Br742   1.929       .  S
C747        C748   1.413       .  A
C747        C752   1.415       .  A
C748        C749   1.408       .  A
C748       Br760   1.931       .  S
C749        C750   1.409       .  A
C749       Br764   1.929       .  S
C750        C753   1.487       .  S
C750        C751   1.410       .  A
C751        C752   1.407       .  A
C751       Br759   1.932       .  S
C752       Br763   1.933       .  S
C753        C754   1.411       .  A
C753        C758   1.412       .  A
C754        C755   1.408       .  A
C754       Br765   1.928       .  S
C755        C756   1.408       .  A
C755       Br761   1.930       .  S
C756        C757   1.406       .  A
C757        C758   1.406       .  A
C757       Br766   1.929       .  S
C758       Br762   1.931       .  S
C767        C768   1.411       .  A
C767        C772   1.409       .  A
C768        C769   1.411       .  A
C768       Br780   1.927       .  S
C769       C1556   1.410       .  A
C769      Br1570   1.929       .  S
C770        C773   1.489   1_556  S
C770       C1555   1.410       .  A
C770       C1557   1.410       .  A
C771        C772   1.408       .  A
C771       C1556   1.410       .  A
C771       Br779   1.931       .  S
C772       Br783   1.929       .  S
C773        C774   1.409       .  A
C773        C778   1.408       .  A
C774        C775   1.412       .  A
C774       Br785   1.929   1_554  S
C775        C776   1.417       .  A
C775       Br781   1.932       .  S
C776        C777   1.413       .  A
C777        C778   1.406       .  A
C777       Br786   1.933       .  S
C778      Br1568   1.930       .  S
Br782      C1564   1.931       .  S
Br784      C1555   1.929       .  S
C787        N788   1.360       .  A
C787        N792   1.359       .  A
C787       C1522   1.470       .  S
N788        C789   1.357       .  A
C789        N790   1.361       .  A
C789       C1562   1.487       .  S
N790        C791   1.356       .  A
C791        N792   1.354       .  A
C791       C1542   1.471       .  S
C793        N794   1.359       .  A
C793        N798   1.358       .  A
C793       C1453   1.471       .  S
N794        C795   1.357       .  A
C795        N796   1.355       .  A
C795       C1493   1.466       .  S
N796        C797   1.356       .  A
C797        N798   1.357       .  A
C797       C1473   1.476       .  S
C799        N800   1.362       .  A
C799        N804   1.362       .  A
C799       C1393   1.503       .  S
N800        C801   1.358       .  A
C801        N802   1.353       .  A
C801       C1442   1.489       .  S
N802        C803   1.354       .  A
C803        N804   1.360       .  A
C803       C1413   1.479       .  S
C805        N806   1.361       .  A
C805        N810   1.358       .  A
C805       C1333   1.474       .  S
N806        C807   1.359       .  A
C807        N808   1.355       .  A
C807       C1373   1.477       .  S
N808        C809   1.354       .  A
C809        N810   1.355       .  A
C809       C1362   1.464       .  S
C811        N812   1.359       .  A
C811        N816   1.363       .  A
C811       C1273   1.479       .  S
N812        C813   1.358       .  A
C813        N814   1.355       .  A
C813       C1322   1.471       .  S
N814        C815   1.355       .  A
C815        N816   1.361       .  A
C815       C1293   1.479       .  S
C817        N818   1.363       .  A
C817        N822   1.364       .  A
C817       C1213   1.485       .  S
N818        C819   1.355       .  A
C819        N820   1.356       .  A
C819       C1253   1.474       .  S
N820        C821   1.359       .  A
C821        N822   1.356       .  A
C821       C1242   1.486       .  S
O823        C839   1.274       .  A
O823       Zn829   2.022       .  S
C824       C1433   1.493       .  S
C824        O840   1.273       .  A
C824        O837   1.278   1_655  A
O825        C838   1.275       .  A
O825       Cd832   2.077   1_655  S
O826        C844   1.277       .  A
O826       Cd835   2.079       .  S
O827        C841   1.275       .  A
O827       Cd831   2.062       .  S
O828        C839   1.271   1_455  A
O828       Cd831   2.053       .  S
Zn829       O840   2.012       .  S
Zn829       O842   1.988       .  S
Zn829       O834   1.935   1_655  S
O830        C841   1.279       .  A
O830       Cd835   2.085       .  S
Cd831       O833   2.072       .  S
Cd831       O834   1.991       .  S
Cd832       O836   2.089       .  S
Cd832       O845   2.072       .  S
Cd832       O834   2.002       .  S
O833        C843   1.273       .  A
O834       Cd835   1.997       .  S
Cd835       O837   2.102       .  S
O836        C843   1.276       .  A
C838       C1162   1.480       .  S
C838        O842   1.271       .  A
C839       C1422   1.469       .  S
C841       C1222   1.484       .  S
C843       C1193   1.498       .  S
C844       C1173   1.486       .  S
C844        O845   1.276       .  A
O846        C862   1.275       .  A
O846       Zn852   2.035       .  S
C847       C1502   1.481       .  S
C847        O863   1.275       .  A
C847        O860   1.276       .  A
O848        C861   1.277       .  A
O848       Cd855   2.087       .  S
O849        C867   1.277       .  A
O849       Cd858   2.092       .  S
O850        C864   1.275       .  A
O850       Cd854   2.075       .  S
O851        C862   1.275       .  A
O851       Cd854   2.076       .  S
Zn852       O863   2.013       .  S
Zn852       O865   2.013       .  S
Zn852       O857   1.945       .  S
O853        C864   1.275       .  A
O853       Cd858   2.076       .  S
Cd854       O856   2.059       .  S
Cd854       O857   1.996       .  S
Cd855       O859   2.064       .  S
Cd855       O868   2.076       .  S
Cd855       O857   2.008       .  S
O856        C866   1.274       .  A
O857       Cd858   2.005       .  S
Cd858       O860   2.071       .  S
O859        C866   1.273       .  A
C861       C1133   1.483       .  S
C861        O865   1.273       .  A
C862       C1482   1.487       .  S
C864       C1282   1.491       .  S
C866       C1182   1.477       .  S
C867       C1202   1.479       .  S
C867        O868   1.275       .  A
O869        C885   1.275       .  A
O869       Zn875   2.019       .  S
C870       C1553   1.481       .  S
C870        O886   1.273       .  A
C870        O883   1.276       .  A
O871        C884   1.275       .  A
O871       Cd878   2.078       .  S
O872        C890   1.277       .  A
O872       Cd881   2.079       .  S
O873        C887   1.274       .  A
O873       Cd877   2.055       .  S
O874        C885   1.273       .  A
O874       Cd877   2.066       .  S
Zn875       O886   2.027       .  S
Zn875       O888   1.998       .  S
Zn875       O880   1.939       .  S
O876        C887   1.276       .  A
O876       Cd881   2.074       .  S
Cd877       O879   2.081       .  S
Cd877       O880   2.001       .  S
Cd878       O882   2.070       .  S
Cd878       O891   2.078       .  S
Cd878       O880   2.002       .  S
O879        C889   1.274       .  A
O880       Cd881   2.000       .  S
Cd881       O883   2.087       .  S
O882        C889   1.274       .  A
C884       C1082   1.493       .  S
C884        O888   1.271       .  A
C885       C1533   1.482       .  S
C887       C1462   1.479       .  S
C889       C1122   1.487       .  S
C890       C1093   1.480       .  S
C890        O891   1.277       .  A
O892        C908   1.270       .  A
O892       Zn898   1.998       .  S
C893       C1382   1.478       .  S
C893        O909   1.273       .  A
C893        O906   1.277       .  A
O894        C907   1.275       .  A
O894       Cd901   2.081       .  S
O895        C913   1.276       .  A
O895       Cd904   2.087       .  S
O896        C910   1.276       .  A
O896       Cd900   2.078   1_545  S
O897        C908   1.273       .  A
O897       Cd900   2.075       .  S
Zn898       O909   2.006       .  S
Zn898       O911   1.990       .  S
Zn898       O903   1.935       .  S
O899        C910   1.276       .  A
O899       Cd904   2.075   1_545  S
Cd900       O902   2.094       .  S
Cd900       O903   2.005       .  S
Cd901       O905   2.059       .  S
Cd901       O914   2.062       .  S
Cd901       O903   1.993       .  S
O902        C912   1.278       .  A
O903       Cd904   1.998       .  S
Cd904       O906   2.078       .  S
O905        C912   1.273       .  A
C907       C1062   1.479       .  S
C907        O911   1.269       .  A
C908       C1353   1.501       .  S
C910       C1402   1.478       .  S
C912       C1102   1.495   1_565  S
C913       C1113   1.484   1_565  S
C913        O914   1.274       .  A
C915        N916   1.357       .  A
C915        N920   1.357       .  A
C915       C1073   1.469       .  S
N916        C917   1.358       .  A
C917        N918   1.355       .  A
C917       C1033   1.474       .  S
N918        C919   1.354       .  A
C919        N920   1.356       .  A
C919       C1153   1.475       .  S
C921        N922   1.356       .  A
C921        N926   1.353       .  A
C921       C1053   1.473       .  S
N922        C923   1.359       .  A
C923        N924   1.364       .  A
C923       C1142   1.491       .  S
N924        C925   1.363       .  A
C925        N926   1.355       .  A
C925       C1022   1.482       .  S
O927        C943   1.274       .  A
O927       Zn933   2.019       .  S
C928       C1262   1.483       .  S
C928        O944   1.273       .  A
C928        O941   1.276       .  A
O929        C942   1.274       .  A
O929       Cd936   2.079       .  S
O930        C948   1.274       .  A
O930       Cd939   2.067       .  S
O931        C945   1.276       .  A
O931       Cd935   2.085       .  S
O932        C943   1.276       .  A
O932       Cd935   2.075       .  S
Zn933       O944   2.006       .  S
Zn933       O946   2.012       .  S
Zn933       O938   1.938       .  S
O934        C945   1.274       .  A
O934       Cd939   2.072       .  S
Cd935       O937   2.085       .  S
Cd935       O938   1.999       .  S
Cd936       O940   2.058       .  S
Cd936       O949   2.060       .  S
Cd936       O938   2.002       .  S
O937        C947   1.277       .  A
O938       Cd939   1.999       .  S
Cd939       O941   2.077       .  S
O940        C947   1.274       .  A
C942       C1013   1.485       .  S
C942        O946   1.273       .  A
C943       C1233   1.473       .  S
C945       C1513   1.494       .  S
C947        C993   1.480       .  S
C948        C982   1.466       .  S
C948        O949   1.273       .  A
O950        C966   1.275       .  A
O950       Zn956   2.032       .  S
C951       C1313   1.498       .  S
C951        O967   1.273       .  A
C951        O964   1.275       .  A
O952        C965   1.275       .  A
O952       Cd959   2.068       .  S
O953        C971   1.275       .  A
O953       Cd962   2.082       .  S
O954        C968   1.274       .  A
O954       Cd958   2.058       .  S
O955        C966   1.276       .  A
O955       Cd958   2.088       .  S
Zn956       O967   2.011       .  S
Zn956       O969   2.012       .  S
Zn956       O961   1.937       .  S
O957        C968   1.277       .  A
O957       Cd962   2.080       .  S
Cd958       O960   2.081       .  S
Cd958       O961   1.995       .  S
Cd959       O963   2.057       .  S
Cd959       O972   2.085       .  S
Cd959       O961   1.996       .  S
O960        C970   1.276       .  A
O961       Cd962   1.999       .  S
Cd962       O964   2.078       .  S
O963        C970   1.273       .  A
C965       C1042   1.479       .  S
C965        O969   1.274       .  A
C966       C1302   1.492       .  S
C968       C1342   1.483       .  S
C970        C973   1.486       .  S
C971       C1002   1.492       .  S
C971        O972   1.276       .  A
C973        C974   1.417       .  A
C973        C978   1.419       .  A
C974        C975   1.408       .  A
C974       Br986   1.928       .  S
C975        C976   1.406       .  A
C975       Br990   1.932       .  S
C976        C979   1.479       .  S
C976        C977   1.405       .  A
C977        C978   1.404       .  A
C977       Br985   1.933       .  S
C978       Br989   1.935       .  S
C979        C980   1.410       .  A
C979        C984   1.408       .  A
C980        C981   1.404       .  A
C980       Br991   1.930       .  S
C981        C982   1.407       .  A
C981       Br987   1.929       .  S
C982        C983   1.409       .  A
C983        C984   1.405       .  A
C983       Br992   1.929       .  S
C984       Br988   1.929       .  S
C993        C994   1.412       .  A
C993        C998   1.414       .  A
C994      Br1006   1.929       .  S
C995      Br1010   1.929       .  S
C996        C997   1.408       .  A
C997        C998   1.407       .  A
C997      Br1005   1.931       .  S
C998      Br1009   1.931       .  S
C999       C1000   1.405       .  A
C999       C1004   1.408       .  A
C1000      C1001   1.408       .  A
C1000     Br1011   1.932       .  S
C1001      C1002   1.416       .  A
C1001     Br1007   1.921       .  S
C1002      C1003   1.416       .  A
C1003      C1004   1.411       .  A
C1003     Br1012   1.931       .  S
C1004     Br1008   1.931       .  S
C1013      C1014   1.414       .  A
C1013      C1018   1.415       .  A
C1014      C1015   1.406       .  A
C1014     Br1026   1.932       .  S
C1015      C1016   1.407       .  A
C1015     Br1030   1.931       .  S
C1016      C1019   1.487       .  S
C1016      C1017   1.409       .  A
C1017      C1018   1.410       .  A
C1017     Br1025   1.930       .  S
C1018     Br1029   1.930       .  S
C1019      C1020   1.407       .  A
C1019      C1024   1.410       .  A
C1020      C1021   1.407       .  A
C1020     Br1031   1.930       .  S
C1021      C1022   1.415       .  A
C1021     Br1027   1.933       .  S
C1022      C1023   1.412       .  A
C1023      C1024   1.409       .  A
C1023     Br1032   1.930       .  S
C1024     Br1028   1.930       .  S
C1033      C1034   1.413       .  A
C1033      C1038   1.413       .  A
C1034      C1035   1.406       .  A
C1034     Br1046   1.931       .  S
C1035      C1036   1.407       .  A
C1035     Br1050   1.930       .  S
C1036      C1039   1.476       .  S
C1036      C1037   1.406       .  A
C1037      C1038   1.403       .  A
C1037     Br1045   1.931       .  S
C1038     Br1049   1.933       .  S
C1039      C1040   1.406       .  A
C1039      C1044   1.405       .  A
C1040      C1041   1.406       .  A
C1040     Br1051   1.929       .  S
C1041      C1042   1.415       .  A
C1041     Br1047   1.933       .  S
C1042      C1043   1.413       .  A
C1043      C1044   1.403       .  A
C1043     Br1052   1.921       .  S
C1044     Br1048   1.934       .  S
C1053      C1054   1.411       .  A
C1053      C1058   1.411       .  A
C1054      C1055   1.406       .  A
C1054     Br1066   1.931       .  S
C1055      C1056   1.409       .  A
C1055     Br1070   1.930       .  S
C1056      C1059   1.481       .  S
C1056      C1057   1.409       .  A
C1057      C1058   1.405       .  A
C1057     Br1065   1.931       .  S
C1058     Br1069   1.933       .  S
C1059      C1060   1.407       .  A
C1059      C1064   1.408       .  A
C1060      C1061   1.407       .  A
C1060     Br1071   1.932       .  S
C1061      C1062   1.416       .  A
C1061     Br1067   1.934       .  S
C1062      C1063   1.412       .  A
C1063      C1064   1.406       .  A
C1063     Br1072   1.930       .  S
C1064     Br1068   1.931       .  S
C1073      C1074   1.408       .  A
C1073      C1078   1.410       .  A
C1074      C1075   1.404       .  A
C1074     Br1086   1.930       .  S
C1075      C1076   1.408       .  A
C1075     Br1090   1.928       .  S
C1076      C1079   1.478       .  S
C1076      C1077   1.409       .  A
C1077      C1078   1.405       .  A
C1077     Br1085   1.931       .  S
C1078     Br1089   1.930       .  S
C1079      C1080   1.403       .  A
C1079      C1084   1.404       .  A
C1080      C1081   1.405       .  A
C1080     Br1091   1.935       .  S
C1081      C1082   1.424       .  A
C1081     Br1087   1.938       .  S
C1082      C1083   1.422       .  A
C1083      C1084   1.409       .  A
C1083     Br1092   1.933       .  S
C1084     Br1088   1.932       .  S
C1093      C1094   1.411       .  A
C1093      C1098   1.412       .  A
C1094      C1095   1.409   1_556  A
C1094     Br1106   1.929       .  S
C1095      C1096   1.409   1_554  A
C1096      C1097   1.409       .  A
C1097      C1098   1.408       .  A
C1097     Br1105   1.930   1_545  S
C1098     Br1109   1.931       .  S
C1099      C1100   1.408       .  A
C1099      C1104   1.406   1_545  A
C1100      C1101   1.410       .  A
C1101      C1102   1.418       .  A
C1101     Br1107   1.932       .  S
C1102      C1103   1.422   1_545  A
C1103      C1104   1.409       .  A
C1103     Br1112   1.935       .  S
C1104     Br1108   1.931       .  S
C1113      C1114   1.415       .  A
C1113      C1118   1.413       .  A
C1114      C1115   1.407       .  A
C1114     Br1126   1.934       .  S
C1115      C1116   1.407       .  A
C1115     Br1130   1.930       .  S
C1116      C1119   1.486       .  S
C1116      C1117   1.409       .  A
C1117      C1118   1.409       .  A
C1117     Br1125   1.931       .  S
C1118     Br1129   1.925   1_545  S
C1119      C1120   1.407       .  A
C1119      C1124   1.408       .  A
C1120      C1121   1.407       .  A
C1120     Br1131   1.931       .  S
C1121      C1122   1.416       .  A
C1121     Br1127   1.932       .  S
C1122      C1123   1.416       .  A
C1123      C1124   1.410       .  A
C1123     Br1132   1.931       .  S
C1124     Br1128   1.931   1_545  S
C1133      C1134   1.411       .  A
C1133      C1138   1.415       .  A
C1134      C1135   1.410       .  A
C1134     Br1146   1.929       .  S
C1135      C1136   1.410       .  A
C1135     Br1150   1.930       .  S
C1136      C1139   1.489       .  S
C1136      C1137   1.409       .  A
C1137      C1138   1.409       .  A
C1137     Br1145   1.930       .  S
C1138     Br1149   1.933       .  S
C1139      C1140   1.407       .  A
C1139      C1144   1.409       .  A
C1140      C1141   1.409       .  A
C1140     Br1151   1.931       .  S
C1141      C1142   1.418       .  A
C1141     Br1147   1.933       .  S
C1142      C1143   1.416       .  A
C1143      C1144   1.410       .  A
C1143     Br1152   1.931       .  S
C1144     Br1148   1.931       .  S
C1153      C1154   1.413       .  A
C1153      C1158   1.414       .  A
C1154      C1155   1.404       .  A
C1154     Br1166   1.932       .  S
C1155      C1156   1.406       .  A
C1155     Br1170   1.930       .  S
C1156      C1159   1.477       .  S
C1156      C1157   1.407       .  A
C1157      C1158   1.405       .  A
C1157     Br1165   1.931       .  S
C1158     Br1169   1.933       .  S
C1159      C1160   1.404       .  A
C1159      C1164   1.407       .  A
C1160      C1161   1.403       .  A
C1160     Br1171   1.933       .  S
C1161      C1162   1.418       .  A
C1161     Br1167   1.937       .  S
C1162      C1163   1.416       .  A
C1163      C1164   1.408       .  A
C1163     Br1172   1.932       .  S
C1164     Br1168   1.930       .  S
C1173      C1174   1.417       .  A
C1173      C1178   1.417       .  A
C1174      C1175   1.407       .  A
C1174     Br1186   1.934       .  S
C1175      C1176   1.407       .  A
C1175     Br1190   1.932       .  S
C1176      C1177   1.407   1_556  A
C1177      C1178   1.409   1_554  A
C1178     Br1189   1.932   1_556  S
C1179      C1180   1.409       .  A
C1179      C1184   1.407       .  A
C1180      C1181   1.408       .  A
C1181      C1182   1.414       .  A
C1181     Br1187   1.933       .  S
C1182      C1183   1.414       .  A
C1183      C1184   1.404       .  A
C1183     Br1192   1.934       .  S
C1184     Br1188   1.931       .  S
C1193      C1194   1.420       .  A
C1193      C1198   1.420       .  A
C1194      C1195   1.412       .  A
C1194     Br1206   1.933   1_455  S
C1195      C1196   1.409       .  A
C1195     Br1210   1.931       .  S
C1196      C1199   1.494       .  S
C1196      C1197   1.409       .  A
C1197      C1198   1.410       .  A
C1197     Br1205   1.933       .  S
C1198     Br1209   1.934       .  S
C1199      C1200   1.413       .  A
C1199      C1204   1.412       .  A
C1200      C1201   1.412       .  A
C1200     Br1211   1.930       .  S
C1201      C1202   1.411       .  A
C1201     Br1207   1.931       .  S
C1202      C1203   1.406       .  A
C1203      C1204   1.408       .  A
C1203     Br1212   1.926       .  S
C1204     Br1208   1.930       .  S
C1213      C1214   1.418       .  A
C1213      C1218   1.416       .  A
C1214      C1215   1.408       .  A
C1214     Br1226   1.931       .  S
C1215      C1216   1.407       .  A
C1215     Br1230   1.931       .  S
C1216      C1219   1.485       .  S
C1216      C1217   1.408       .  A
C1217      C1218   1.408       .  A
C1217     Br1225   1.931       .  S
C1218     Br1229   1.932       .  S
C1219      C1220   1.408       .  A
C1219      C1224   1.408       .  A
C1220      C1221   1.407       .  A
C1220     Br1231   1.930       .  S
C1221      C1222   1.414       .  A
C1221     Br1227   1.932       .  S
C1222      C1223   1.417       .  A
C1223      C1224   1.409       .  A
C1223     Br1232   1.934       .  S
C1224     Br1228   1.930       .  S
C1233      C1234   1.409       .  A
C1233      C1238   1.409       .  A
C1234      C1235   1.409       .  A
C1234     Br1246   1.928       .  S
C1235     Br1250   1.928       .  S
C1236      C1239   1.485       .  S
C1237      C1238   1.406       .  A
C1238     Br1249   1.931       .  S
C1239      C1240   1.407       .  A
C1239      C1244   1.408       .  A
C1240      C1241   1.407       .  A
C1240     Br1251   1.929       .  S
C1241      C1242   1.413       .  A
C1241     Br1247   1.931       .  S
C1242      C1243   1.416       .  A
C1243      C1244   1.410       .  A
C1243     Br1252   1.930       .  S
C1253      C1254   1.408       .  A
C1253      C1258   1.407       .  A
C1254      C1255   1.407       .  A
C1254     Br1266   1.929       .  S
C1255      C1256   1.411       .  A
C1255     Br1270   1.930       .  S
C1256      C1259   1.488       .  S
C1256      C1257   1.412       .  A
C1257      C1258   1.408       .  A
C1257     Br1265   1.931       .  S
C1258     Br1269   1.928       .  S
C1259      C1260   1.409       .  A
C1259      C1264   1.411       .  A
C1260      C1261   1.407       .  A
C1260     Br1271   1.931       .  S
C1261      C1262   1.414       .  A
C1261     Br1267   1.933       .  S
C1262      C1263   1.415       .  A
C1263      C1264   1.408       .  A
C1263     Br1272   1.934       .  S
C1264     Br1268   1.931       .  S
C1273      C1274   1.409       .  A
C1273      C1278   1.411       .  A
C1274      C1275   1.408       .  A
C1274     Br1286   1.929       .  S
C1275      C1276   1.411       .  A
C1275     Br1290   1.930   1_655  S
C1276      C1279   1.489       .  S
C1276      C1277   1.410       .  A
C1277      C1278   1.409       .  A
C1277     Br1285   1.930       .  S
C1278     Br1289   1.930       .  S
C1279      C1280   1.407   1_655  A
C1279      C1284   1.409   1_655  A
C1280      C1281   1.408       .  A
C1280     Br1291   1.930       .  S
C1281      C1282   1.417       .  A
C1281     Br1287   1.933       .  S
C1282      C1283   1.418       .  A
C1283      C1284   1.409       .  A
C1283     Br1292   1.933       .  S
C1284     Br1288   1.932   1_455  S
C1293      C1294   1.410       .  A
C1293      C1298   1.411       .  A
C1294      C1295   1.409       .  A
C1294     Br1306   1.930       .  S
C1295      C1296   1.411       .  A
C1295     Br1310   1.929       .  S
C1296      C1299   1.490       .  S
C1296      C1297   1.409       .  A
C1297      C1298   1.409       .  A
C1297     Br1305   1.928       .  S
C1298     Br1309   1.930       .  S
C1299      C1300   1.408       .  A
C1299      C1304   1.407       .  A
C1300      C1301   1.409       .  A
C1300     Br1311   1.932       .  S
C1301      C1302   1.415       .  A
C1301     Br1307   1.927       .  S
C1302      C1303   1.417       .  A
C1303      C1304   1.412       .  A
C1303     Br1312   1.930       .  S
C1304     Br1308   1.929       .  S
C1313      C1314   1.425       .  A
C1313      C1318   1.423       .  A
C1314      C1315   1.407       .  A
C1314     Br1326   1.938       .  S
C1315     Br1330   1.933       .  S
C1316      C1319   1.483       .  S
C1317      C1318   1.409   1_554  A
C1318     Br1329   1.933       .  S
C1319      C1320   1.409       .  A
C1319      C1324   1.409       .  A
C1320      C1321   1.406       .  A
C1320     Br1331   1.930       .  S
C1321      C1322   1.409       .  A
C1321     Br1327   1.931       .  S
C1322      C1323   1.408       .  A
C1323      C1324   1.407       .  A
C1323     Br1332   1.928       .  S
C1333      C1334   1.411       .  A
C1333      C1338   1.410       .  A
C1334      C1335   1.406       .  A
C1334     Br1346   1.930       .  S
C1335      C1336   1.409       .  A
C1335     Br1350   1.931       .  S
C1336      C1339   1.481       .  S
C1336      C1337   1.408       .  A
C1337      C1338   1.406       .  A
C1337     Br1345   1.929       .  S
C1338     Br1349   1.931       .  S
C1339      C1340   1.407       .  A
C1339      C1344   1.407       .  A
C1340      C1341   1.408       .  A
C1340     Br1351   1.930       .  S
C1341      C1342   1.415       .  A
C1341     Br1347   1.930       .  S
C1342      C1343   1.417       .  A
C1343      C1344   1.405       .  A
C1343     Br1352   1.934       .  S
C1344     Br1348   1.933       .  S
C1353      C1354   1.428       .  A
C1353      C1358   1.427       .  A
C1354      C1355   1.406       .  A
C1354     Br1366   1.937       .  S
C1355     Br1370   1.936       .  S
C1356      C1359   1.480       .  S
C1356      C1357   1.404       .  A
C1357     Br1365   1.935       .  S
C1358     Br1369   1.937       .  S
C1359      C1360   1.410       .  A
C1359      C1364   1.410       .  A
C1360      C1361   1.406       .  A
C1361      C1362   1.408       .  A
C1361     Br1367   1.930       .  S
C1362      C1363   1.405       .  A
C1363      C1364   1.403       .  A
C1363     Br1372   1.930       .  S
C1364     Br1368   1.930       .  S
C1373      C1374   1.413       .  A
C1373      C1378   1.411       .  A
C1374      C1375   1.405       .  A
C1374     Br1386   1.932       .  S
C1375      C1376   1.407       .  A
C1375     Br1390   1.930       .  S
C1376      C1379   1.481       .  S
C1376      C1377   1.409       .  A
C1377      C1378   1.408       .  A
C1377     Br1385   1.930       .  S
C1378     Br1389   1.930       .  S
C1379      C1380   1.407       .  A
C1379      C1384   1.408       .  A
C1380      C1381   1.403       .  A
C1380     Br1391   1.933       .  S
C1381      C1382   1.411       .  A
C1381     Br1387   1.926       .  S
C1382      C1383   1.413       .  A
C1383      C1384   1.409       .  A
C1383     Br1392   1.930       .  S
C1384     Br1388   1.928       .  S
C1393      C1394   1.426       .  A
C1393      C1398   1.425       .  A
C1394      C1395   1.412       .  A
C1394     Br1406   1.934       .  S
C1395      C1396   1.405       .  A
C1395     Br1410   1.933       .  S
C1396      C1399   1.486       .  S
C1396      C1397   1.403       .  A
C1397      C1398   1.408       .  A
C1397     Br1405   1.933       .  S
C1398     Br1409   1.936       .  S
C1399      C1400   1.409       .  A
C1399      C1404   1.409       .  A
C1400      C1401   1.409       .  A
C1400     Br1411   1.929       .  S
C1401      C1402   1.412       .  A
C1401     Br1407   1.930       .  S
C1402      C1403   1.410       .  A
C1403      C1404   1.407       .  A
C1403     Br1412   1.931       .  S
C1404     Br1408   1.930       .  S
C1413      C1414   1.414       .  A
C1413      C1418   1.413       .  A
C1414      C1415   1.406       .  A
C1414     Br1426   1.931       .  S
C1415      C1416   1.406       .  A
C1415     Br1430   1.931       .  S
C1416      C1419   1.482       .  S
C1416      C1417   1.408       .  A
C1417      C1418   1.407       .  A
C1417     Br1425   1.931       .  S
C1418     Br1429   1.931       .  S
C1419      C1420   1.409       .  A
C1419      C1424   1.410       .  A
C1420      C1421   1.408       .  A
C1420     Br1431   1.927       .  S
C1421      C1422   1.408       .  A
C1421     Br1427   1.929       .  S
C1422      C1423   1.409       .  A
C1423      C1424   1.404       .  A
C1423     Br1432   1.933       .  S
C1424     Br1428   1.932       .  S
C1433      C1434   1.415       .  A
C1433      C1438   1.420       .  A
C1434      C1435   1.412   1_556  A
C1434     Br1446   1.929   1_655  S
C1436      C1439   1.490       .  S
C1437      C1438   1.410       .  A
C1437     Br1445   1.932   1_556  S
C1438     Br1449   1.934       .  S
C1439      C1440   1.409       .  A
C1439      C1444   1.408       .  A
C1440      C1441   1.410       .  A
C1441      C1442   1.416       .  A
C1441     Br1447   1.931       .  S
C1442      C1443   1.419       .  A
C1443      C1444   1.408       .  A
C1443     Br1452   1.937       .  S
C1444     Br1448   1.931       .  S
C1453      C1454   1.410       .  A
C1453      C1458   1.409       .  A
C1454      C1455   1.404       .  A
C1454     Br1466   1.927       .  S
C1455      C1456   1.408       .  A
C1455     Br1470   1.932       .  S
C1456      C1459   1.478       .  S
C1456      C1457   1.408       .  A
C1457      C1458   1.405       .  A
C1457     Br1465   1.929       .  S
C1458     Br1469   1.929       .  S
C1459      C1460   1.408       .  A
C1459      C1464   1.406       .  A
C1460      C1461   1.407       .  A
C1460     Br1471   1.931       .  S
C1461      C1462   1.415   1_565  A
C1461     Br1467   1.932       .  S
C1462      C1463   1.415       .  A
C1463      C1464   1.404   1_545  A
C1463     Br1472   1.934       .  S
C1464     Br1468   1.932       .  S
C1473      C1474   1.412       .  A
C1473      C1478   1.412       .  A
C1474      C1475   1.407       .  A
C1474     Br1486   1.934       .  S
C1475      C1476   1.409       .  A
C1475     Br1490   1.929       .  S
C1476      C1479   1.485   1_556  S
C1476      C1477   1.409       .  A
C1477      C1478   1.407       .  A
C1477     Br1485   1.930       .  S
C1478     Br1489   1.931       .  S
C1479      C1480   1.407   1_554  A
C1480     Br1491   1.932       .  S
C1481      C1482   1.416       .  A
C1481     Br1487   1.931       .  S
C1482      C1483   1.414       .  A
C1483      C1484   1.410       .  A
C1483     Br1492   1.925       .  S
C1484     Br1488   1.931       .  S
C1493      C1494   1.407       .  A
C1493      C1498   1.407       .  A
C1494      C1495   1.403       .  A
C1494     Br1506   1.928       .  S
C1495      C1496   1.410       .  A
C1495     Br1510   1.931       .  S
C1496      C1499   1.479       .  S
C1496      C1497   1.409       .  A
C1497      C1498   1.405       .  A
C1497     Br1505   1.929       .  S
C1498     Br1509   1.928       .  S
C1499      C1500   1.406       .  A
C1499      C1504   1.408       .  A
C1500      C1501   1.406       .  A
C1500     Br1511   1.931       .  S
C1501      C1502   1.414       .  A
C1501     Br1507   1.928       .  S
C1502      C1503   1.414       .  A
C1503      C1504   1.405       .  A
C1503     Br1512   1.930       .  S
C1504     Br1508   1.933       .  S
C1513      C1514   1.419       .  A
C1513      C1518   1.421       .  A
C1514      C1515   1.408       .  A
C1514     Br1526   1.933       .  S
C1515      C1516   1.407       .  A
C1515     Br1530   1.934       .  S
C1516      C1519   1.485       .  S
C1516      C1517   1.406       .  A
C1517      C1518   1.410       .  A
C1517     Br1525   1.931       .  S
C1518     Br1529   1.933       .  S
C1519      C1520   1.410       .  A
C1519      C1524   1.410       .  A
C1520      C1521   1.408       .  A
C1520     Br1531   1.928       .  S
C1521      C1522   1.408       .  A
C1521     Br1527   1.929       .  S
C1522      C1523   1.408       .  A
C1523      C1524   1.405       .  A
C1523     Br1532   1.931       .  S
C1524     Br1528   1.930       .  S
C1533      C1534   1.413       .  A
C1533      C1538   1.415       .  A
C1534      C1535   1.407       .  A
C1534     Br1546   1.931       .  S
C1535      C1536   1.409       .  A
C1535     Br1550   1.929       .  S
C1536      C1539   1.486       .  S
C1536      C1537   1.410       .  A
C1537      C1538   1.407       .  A
C1537     Br1545   1.932       .  S
C1538     Br1549   1.933       .  S
C1539      C1540   1.411       .  A
C1539      C1544   1.412       .  A
C1540      C1541   1.408       .  A
C1540     Br1551   1.929       .  S
C1541      C1542   1.407       .  A
C1541     Br1547   1.930       .  S
C1542      C1543   1.406       .  A
C1543      C1544   1.406       .  A
C1543     Br1552   1.929       .  S
C1544     Br1548   1.931       .  S
C1553      C1554   1.411       .  A
C1553      C1558   1.410       .  A
C1554      C1555   1.411       .  A
C1554     Br1566   1.927       .  S
C1556      C1559   1.489       .  S
C1557      C1558   1.408       .  A
C1557     Br1565   1.931   1_556  S
C1558     Br1569   1.929       .  S
C1559      C1560   1.409       .  A
C1559      C1564   1.408       .  A
C1560      C1561   1.412       .  A
C1560     Br1571   1.930       .  S
C1561      C1562   1.417       .  A
C1561     Br1567   1.932       .  S
C1562      C1563   1.414       .  A
C1563      C1564   1.406       .  A
C1563     Br1572   1.933       .  S
