geometry optimzed in LAMMPS
_audit_creation_date              2020-11-30 
_audit_creation_method            'lammps2cif' 
_symmetry_space_group_name_H-M    'P1' 
_symmetry_Int_Tables_number       1 
_symmetry_cell_setting            triclinic 
loop_ 
_symmetry_equiv_pos_as_xyz 
  x,y,z 
_cell_length_a                    49.18684564 
_cell_length_b                    49.330682249966024 
_cell_length_c                    49.426574536482676 
_cell_angle_alpha                 89.73419649916225 
_cell_angle_beta                  90.72408374939197 
_cell_angle_gamma                 89.09586816197942 
loop_ 
_atom_site_label 
_atom_site_type_symbol 
_atom_site_fract_x 
_atom_site_fract_y 
_atom_site_fract_z 
_atom_site_charge 
N1          N  0.64241938  0.13971971  0.25436415    -0.01300
C2          C  0.62739415  0.15486164  0.27151121    -0.12100
C3          C  0.60135897  0.14504107  0.27497816    -0.07600
C4          C  0.60101204  0.12247883  0.25828747    -0.08300
C5          C  0.62624648  0.11969025  0.24606535    -0.12200
N6          N  0.32769137  0.11298095  0.26425028    -0.01300
C7          C  0.34622200  0.12577144  0.27981271    -0.12100
C8          C  0.36785978  0.10863226  0.28579019    -0.07600
C9          C  0.36280727  0.08426033  0.27304285    -0.08300
C10         C  0.33720169  0.08715942  0.26030681    -0.12200
C11         C  0.48452920  0.20300020  0.39411368     0.30300
C12         C  0.52263263  0.18298496  0.35785464     0.30300
C13         C  0.47519997  0.17905375  0.37579906    -0.05900
C14         C  0.49509199  0.22334328  0.37297957    -0.06700
C15         C  0.51105419  0.19020261  0.40614242    -0.06500
C16         C  0.49472811  0.16936953  0.35746665    -0.05900
C17         C  0.51378174  0.21279320  0.35429470    -0.06700
C18         C  0.53065287  0.18151927  0.38774000    -0.06600
C19         C  0.48293994  0.14981545  0.34187416    -0.31900
N20         N  0.45691925  0.14655623  0.34990261     0.14600
C21         C  0.45227430  0.16382675  0.37085437    -0.31900
H22         H  0.43317711  0.16546990  0.38106286     0.16500
C23         C  0.50985659  0.22757451  0.33092714    -0.30900
N24         N  0.49221227  0.24813752  0.33514017     0.13300
C25         C  0.48229717  0.24549313  0.36044914    -0.30900
C26         C  0.55536981  0.18260352  0.40094930    -0.31200
N27         N  0.55122356  0.18913661  0.42727166     0.13800
H28         H  0.57485701  0.18237786  0.39104904     0.16400
C29         C  0.52406397  0.19213897  0.43077073    -0.31200
H30         H  0.51477808  0.19823089  0.44952174     0.16400
H31         H  0.46554475  0.25736175  0.36837668     0.16400
H32         H  0.49239675  0.13952430  0.32508706     0.16500
H33         H  0.51785663  0.22279599  0.31121343     0.16400
N34         N  0.38485060  0.83142111  0.26536139    -0.01300
C35         C  0.40205116  0.81464333  0.27942486    -0.12100
C36         C  0.42736732  0.82602220  0.28367835    -0.07600
C37         C  0.42447223  0.85109536  0.27064838    -0.08300
C38         C  0.39841577  0.85392302  0.25929820    -0.12200
N39         N  0.67197222  0.86442554  0.26155343    -0.01300
C40         C  0.68370173  0.87712445  0.24039607    -0.12100
C41         C  0.66871078  0.90047884  0.23317846    -0.07600
C42         C  0.64681254  0.90106702  0.25147061    -0.08300
C43         C  0.64933082  0.87825464  0.26850803    -0.12200
C44         C  0.72960037  0.02838509  0.12671245     0.30300
C45         C  0.70594888  0.98595182  0.15581552     0.30300
C46         C  0.72503551  0.00144137  0.11182730    -0.05900
C47         C  0.74461054  0.01873448  0.15295777    -0.06700
C48         C  0.70052868  0.03387188  0.13762332    -0.06500
C49         C  0.71385200  0.97961399  0.12629640    -0.05900
C50         C  0.73313099  0.99668210  0.16628160    -0.06700
C51         C  0.68847989  0.01201160  0.15153570    -0.06600
C52         C  0.71902870  0.95678698  0.11083466    -0.31900
N53         N  0.73106600  0.96465487  0.08761421     0.14600
C54         C  0.73447485  0.99166217  0.08785166    -0.31900
H55         H  0.74538452  0.00283209  0.07265185     0.16500
C56         C  0.74890033  0.99049325  0.18843083    -0.30900
N57         N  0.76830207  0.00933002  0.19098905     0.13300
C58         C  0.76572531  0.02703528  0.16976041    -0.30900
C59         C  0.66719762  0.02232630  0.16614350    -0.31200
N60         N  0.66711349  0.04960202  0.16411284     0.13800
H61         H  0.65559182  0.01125928  0.18088228     0.16400
C62         C  0.68772599  0.05690809  0.14766784    -0.31200
H63         H  0.69516509  0.07737569  0.14602948     0.16400
H64         H  0.77751375  0.04519405  0.16741667     0.16400
H65         H  0.71693684  0.93583250  0.11672629     0.16500
H66         H  0.74588229  0.97389689  0.20241567     0.16400
C67         C  0.55754581  0.76256204  0.39193868     0.30300
C68         C  0.51510924  0.78057558  0.35753916     0.30300
C69         C  0.56439808  0.78618787  0.37161355    -0.05900
C70         C  0.54550697  0.74101146  0.37176566    -0.06700
C71         C  0.53152004  0.77367080  0.40502316    -0.06500
C72         C  0.54256635  0.79500077  0.35495510    -0.05900
C73         C  0.52411622  0.75031884  0.35459599    -0.06700
C74         C  0.50994822  0.78184222  0.38827421    -0.06600
C75         C  0.55229941  0.81296001  0.33618433    -0.31900
N76         N  0.57965200  0.81529397  0.33929884     0.14600
C77         C  0.58729047  0.79893498  0.36083244    -0.31900
H78         H  0.60812509  0.79545039  0.36740314     0.16500
C79         C  0.51708850  0.72884727  0.33802066    -0.30900
N80         N  0.53383101  0.70724562  0.34318932     0.13300
C81         C  0.55121317  0.71432574  0.36372202    -0.30900
C82         C  0.48753268  0.78429068  0.40492671    -0.31200
N83         N  0.49544432  0.77984530  0.43119590     0.13800
H84         H  0.46676489  0.78721983  0.39798140     0.16400
C85         C  0.52233390  0.77344836  0.43113593    -0.31200
H86         H  0.53435563  0.76771380  0.44876724     0.16400
H87         H  0.56755462  0.70143292  0.37145060     0.16400
H88         H  0.54000410  0.82317128  0.32086121     0.16500
H89         H  0.50098168  0.72864828  0.32296924     0.16400
C90         C  0.29779239  0.00383033  0.18629159     0.30300
C91         C  0.28285729  0.96417783  0.15042597     0.30300
C92         C  0.31419005  0.97627318  0.18855227    -0.05900
C93         C  0.26816824  0.99419346  0.18800020    -0.06700
C94         C  0.30086879  0.01107794  0.15571114    -0.06500
C95         C  0.30624381  0.95601515  0.17047765    -0.05900
C96         C  0.26051501  0.97385852  0.17023291    -0.06700
C97         C  0.29314212  0.99070412  0.13823452    -0.06600
C98         C  0.31998738  0.93226367  0.17835509    -0.31900
N99         N  0.33682319  0.93747924  0.19978149     0.14600
C100        C  0.33388369  0.96434434  0.20560155    -0.31900
H101        H  0.34533168  0.97426942  0.22138985     0.16500
C102        C  0.23395989  0.96738404  0.17670841    -0.30900
N103        N  0.22495088  0.98400269  0.19680491     0.13300
C104        C  0.24593100  0.00037094  0.20382560    -0.30900
C105        C  0.29365115  0.00071080  0.11219379    -0.31200
N106        N  0.30060851  0.02703388  0.11266936     0.13800
H107        H  0.28734152  0.99016623  0.09408501     0.16400
C108        C  0.30617290  0.03348576  0.13901949    -0.31200
H109        H  0.31222084  0.05336053  0.14551543     0.16400
H110        H  0.24506216  0.01618495  0.21888853     0.16400
H111        H  0.31693883  0.91229782  0.16998116     0.16500
H112        H  0.22203332  0.95155714  0.16753006     0.16400
N113        N  0.14670981  0.27977132  0.67876895    -0.01300
C114        C  0.12361944  0.27380453  0.66543184    -0.12100
C115        C  0.12120822  0.28934706  0.64210805    -0.07600
C116        C  0.14421873  0.30483604  0.64069957    -0.08300
C117        C  0.15991182  0.29753010  0.66301705    -0.12200
N118        N  0.15273875  0.26526957  0.36425851    -0.01300
C119        C  0.16783752  0.28322010  0.37863421    -0.12100
C120        C  0.15755238  0.28794709  0.40439734    -0.07600
C121        C  0.13482074  0.27084823  0.40497616    -0.08300
C122        C  0.13238551  0.25709485  0.38013213    -0.12200
C123        C  0.23564877  0.40463929  0.51772534     0.30300
C124        C  0.21314185  0.36629930  0.48170018     0.30300
C125        C  0.22715865  0.41447842  0.48940223    -0.05900
C126        C  0.25348151  0.37897563  0.51121676    -0.06700
C127        C  0.20898447  0.39106276  0.52642991    -0.06500
C128        C  0.21696415  0.39543954  0.47090972    -0.05900
C129        C  0.24229781  0.36012159  0.49285794    -0.06700
C130        C  0.19761122  0.37199020  0.50813483    -0.06600
C131        C  0.22065305  0.40675501  0.44557860    -0.31900
N132        N  0.23021734  0.43221450  0.44863447     0.14600
C133        C  0.23332885  0.43729222  0.47531881    -0.31900
H134        H  0.24191437  0.45547908  0.48380543     0.16500
C135        C  0.26241621  0.34098338  0.48789774    -0.30900
N136        N  0.28499223  0.34674643  0.50289549     0.13300
C137        C  0.27970738  0.36973163  0.51724104    -0.30900
C138        C  0.18084782  0.35572562  0.52294298    -0.31200
N139        N  0.18160594  0.36378226  0.54903797     0.13800
H140        H  0.17117846  0.33746067  0.51592874     0.16400
C141        C  0.19927210  0.38433908  0.55159883    -0.31200
H142        H  0.20698401  0.39143708  0.57085961     0.16400
H143        H  0.29410870  0.37929723  0.53071839     0.16400
H144        H  0.21904191  0.39646030  0.42635620     0.16500
H145        H  0.26115207  0.32460485  0.47348802     0.16400
N146        N  0.89206793  0.24118166  0.36118048    -0.01300
C147        C  0.87911835  0.25762720  0.37925239    -0.12100
C148        C  0.89241129  0.25844367  0.40420341    -0.07600
C149        C  0.91497269  0.24086047  0.40022104    -0.08300
C150        C  0.91418171  0.23045712  0.37378183    -0.12200
N151        N  0.90931114  0.23132281  0.69107481    -0.01300
C152        C  0.89621569  0.24952159  0.67477191    -0.12100
C153        C  0.90717803  0.25041590  0.64898183    -0.07600
C154        C  0.92872093  0.23155927  0.65051585    -0.08300
C155        C  0.92990167  0.22068740  0.67669895    -0.12200
C156        C  0.06123445  0.11871966  0.73311633     0.30300
C157        C  0.01401253  0.14740012  0.72230560     0.30300
C158        C  0.03533562  0.10230183  0.72956461    -0.05900
C159        C  0.05341676  0.14026104  0.75423562    -0.06700
C160        C  0.06132743  0.13605367  0.70715639    -0.06500
C161        C  0.01125686  0.11667855  0.72463726    -0.05900
C162        C  0.02896970  0.15419668  0.74938840    -0.06700
C163        C  0.03659359  0.15009470  0.70133281    -0.06600
C164        C  0.99045898  0.09851220  0.72697999    -0.31900
N165        N  0.00161911  0.07368403  0.73225364     0.14600
C166        C  0.02891872  0.07572938  0.73376413    -0.31900
H167        H  0.04277065  0.05937862  0.73954173     0.16500
C168        C  0.02461939  0.17005612  0.77199710    -0.30900
N169        N  0.04665486  0.16824483  0.78900315     0.13300
C170        C  0.06428185  0.14981280  0.77817903    -0.30900
C171        C  0.04298853  0.17355034  0.68812184    -0.31200
N172        N  0.07008238  0.17538171  0.68691874     0.13800
H173        H  0.02919517  0.19042180  0.68423352     0.16400
C174        C  0.08153037  0.15326253  0.69871536    -0.31200
H175        H  0.10270300  0.15206032  0.70494112     0.16400
H176        H  0.08366705  0.14363789  0.78695366     0.16400
H177        H  0.96889024  0.10322808  0.72686321     0.16500
H178        H  0.00605414  0.18105584  0.77634596     0.16400
C179        C  0.82194495  0.37184925  0.52423220     0.30300
C180        C  0.84428361  0.33375188  0.48802048     0.30300
C181        C  0.84529092  0.35285912  0.53556009    -0.05900
C182        C  0.80211724  0.35009303  0.51272931    -0.06700
C183        C  0.83391341  0.38268372  0.49783183    -0.06500
C184        C  0.85669751  0.33407960  0.51711139    -0.05900
C185        C  0.81334169  0.33109213  0.49435661    -0.06700
C186        C  0.84495780  0.36409207  0.47949913    -0.06600
C187        C  0.86960668  0.31382111  0.53244728    -0.31900
N188        N  0.86663949  0.31903260  0.55925054     0.14600
C189        C  0.85097757  0.34201790  0.56125100    -0.31900
H190        H  0.84298607  0.34970747  0.58006316     0.16500
C191        C  0.79252157  0.31377100  0.48722284    -0.30900
N192        N  0.76967002  0.32068987  0.50094658     0.13300
C193        C  0.77541499  0.34238089  0.51685278    -0.30900
C194        C  0.84460182  0.37735944  0.45450171    -0.31200
N195        N  0.83495077  0.40329552  0.45734963     0.13800
H196        H  0.84950006  0.36799443  0.43540172     0.16400
C197        C  0.82718566  0.40579666  0.48344238    -0.31200
H198        H  0.81480951  0.42226635  0.49110132     0.16400
H199        H  0.76155519  0.35082722  0.53148716     0.16400
H200        H  0.87852562  0.29532733  0.52455852     0.16500
H201        H  0.79363685  0.29711215  0.47315354     0.16400
C202        C  0.99173777  0.15237804  0.31987428     0.30300
C203        C  0.02896432  0.11467634  0.29777686     0.30300
C204        C  0.98461701  0.12231384  0.32213057    -0.05900
C205        C  0.99684971  0.15469820  0.28897837    -0.06700
C206        C  0.02117986  0.15259886  0.33152648    -0.06500
C207        C  0.00361462  0.10384611  0.31226724    -0.05900
C208        C  0.01605009  0.13653838  0.27781008    -0.06700
C209        C  0.04070148  0.13426376  0.32044102    -0.06600
C210        C  0.99215479  0.07858010  0.31380776    -0.31900
N211        N  0.96598632  0.08111465  0.32190208     0.14600
C212        C  0.96095276  0.10796783  0.32572324    -0.31900
H213        H  0.94093003  0.11683671  0.32818399     0.16500
C214        C  0.02232902  0.14784779  0.25261340    -0.30900
N215        N  0.00592070  0.16999633  0.24711059     0.13300
C216        C  0.98987269  0.17349380  0.26915271    -0.30900
C217        C  0.06579456  0.14712332  0.32564188    -0.31200
N218        N  0.06193431  0.17024432  0.34078270     0.13800
H219        H  0.08510547  0.14109289  0.31712125     0.16400
C220        C  0.03484435  0.17331744  0.34411600    -0.31200
H221        H  0.02547393  0.19083680  0.35344926     0.16400
H222        H  0.97392744  0.18849340  0.27102160     0.16400
H223        H  0.00190616  0.05984497  0.30774151     0.16500
H224        H  0.03861414  0.14100264  0.23968454     0.16400
N225        N  0.26471255  0.65720864  0.16312337    -0.01300
C226        C  0.28308607  0.63863485  0.17248114     0.56700
C227        C  0.28662114  0.61817135  0.15400613    -0.07600
C228        C  0.26958156  0.62373130  0.13261647    -0.08300
C229        C  0.25677228  0.64810893  0.13847925    -0.12200
N230        N  0.26453846  0.34702300  0.14998036    -0.01300
C231        C  0.28410456  0.35968213  0.16497188    -0.12100
C232        C  0.29476922  0.38261424  0.15171051    -0.07600
C233        C  0.28014831  0.38212218  0.12667872    -0.08300
C234        C  0.26165151  0.36044288  0.12620051    -0.12200
C235        C  0.42148034  0.50278053  0.20405304     0.30300
C236        C  0.38188722  0.46351233  0.18993055     0.30300
C237        C  0.43113716  0.47739163  0.18848404    -0.05900
C238        C  0.40549139  0.48988170  0.22746342    -0.06700
C239        C  0.39787445  0.51176219  0.18433997    -0.06500
C240        C  0.41162860  0.45753801  0.18244401    -0.05900
C241        C  0.38488022  0.47089186  0.22056153    -0.06700
C242        C  0.37820816  0.49201005  0.17796089    -0.06600
C243        C  0.42577528  0.43435760  0.17600969    -0.31900
N244        N  0.45271042  0.43972043  0.17657094     0.14600
C245        C  0.45602255  0.46625419  0.18246517    -0.31900
H246        H  0.47560051  0.47532327  0.18601027     0.16500
C247        C  0.36535620  0.47445607  0.24038664    -0.30900
N248        N  0.37417125  0.49199792  0.25949946     0.13300
C249        C  0.39826280  0.50178732  0.25160011    -0.30900
C250        C  0.35729742  0.50457618  0.16429017    -0.31200
N251        N  0.36331290  0.53105788  0.16126032     0.13800
H252        H  0.33809756  0.49550758  0.15884369     0.16400
C253        C  0.38841036  0.53530606  0.17212940    -0.31200
H254        H  0.39797848  0.55471738  0.17268281     0.16400
H255        H  0.40796286  0.51909230  0.26075437     0.16400
H256        H  0.41732058  0.41425417  0.17478129     0.16500
H257        H  0.34466166  0.46751534  0.23950635     0.16400
N258        N  0.27903752  0.36396836  0.86304035    -0.01300
C259        C  0.29485522  0.37748255  0.84517780    -0.12100
C260        C  0.30101903  0.40311742  0.85581939    -0.07600
C261        C  0.28782318  0.40442541  0.88098809    -0.08300
C262        C  0.27462553  0.37988752  0.88475581    -0.12200
N263        N  0.28599018  0.65521411  0.87670703    -0.01300
C264        C  0.29138536  0.63411899  0.89320273    -0.12100
C265        C  0.27660745  0.63835794  0.91687793    -0.07600
C266        C  0.26216232  0.66324162  0.91524526    -0.08300
C267        C  0.26909657  0.67291652  0.88963539    -0.12200
C268        C  0.13279408  0.73211363  0.02015847     0.30300
C269        C  0.17557523  0.71311794  0.98744392     0.30300
C270        C  0.12574964  0.71059048  0.99885691    -0.05900
C271        C  0.14807862  0.75387386  0.00344396    -0.06700
C272        C  0.15730158  0.71829205  0.03456184    -0.06500
C273        C  0.14728266  0.70128515  0.98224995    -0.05900
C274        C  0.16884986  0.74422169  0.98578560    -0.06700
C275        C  0.17835534  0.70862883  0.01792379    -0.06600
C276        C  0.13564180  0.69589828  0.95758120    -0.31900
N277        N  0.10868536  0.69998573  0.95866587     0.14600
C278        C  0.10232674  0.70890475  0.98354972    -0.31900
H279        H  0.08303427  0.71845536  0.98833757     0.16500
C280        C  0.18593796  0.76583759  0.98156500    -0.30900
N281        N  0.17861744  0.78713666  0.99738052     0.13300
C282        C  0.15641959  0.77941261  0.01142357    -0.30900
C283        C  0.19759566  0.69655596  0.03412788    -0.31200
N284        N  0.18935668  0.69901897  0.05991728     0.13800
H285        H  0.21621369  0.68659162  0.02780147     0.16400
C286        C  0.16523332  0.71254119  0.06076662    -0.31200
H287        H  0.15461385  0.71760966  0.07913308     0.16400
H288        H  0.14869323  0.78996383  0.02892356     0.16400
H289        H  0.14647689  0.69505371  0.93864429     0.16500
H290        H  0.20407158  0.76506400  0.96950016     0.16400
C291        C  0.37448690  0.48424808  0.80746951     0.30300
C292        C  0.41037340  0.52374234  0.78973094     0.30300
C293        C  0.40547561  0.47782754  0.81163814    -0.05900
C294        C  0.37298271  0.49146491  0.77700938    -0.06700
C295        C  0.37196306  0.51286197  0.82092609    -0.06500
C296        C  0.42271713  0.49840447  0.80349846    -0.05900
C297        C  0.39083958  0.51120167  0.76765482    -0.06700
C298        C  0.38932592  0.53317222  0.81152456    -0.06600
C299        C  0.44883108  0.48823065  0.80315210    -0.31900
N300        N  0.44848825  0.46138786  0.80769663     0.14600
C301        C  0.42256148  0.45486119  0.81379503    -0.31900
H302        H  0.41709176  0.43420908  0.81706247     0.16500
C303        C  0.38344711  0.51553437  0.74040030    -0.30900
N304        N  0.36236583  0.49897003  0.73314206     0.13300
C305        C  0.35659469  0.48384586  0.75545442    -0.30900
C306        C  0.38054864  0.55721703  0.82397677    -0.31200
N307        N  0.36001518  0.55185783  0.84164068     0.13800
H308        H  0.38796803  0.57731438  0.81977925     0.16400
C309        C  0.35517086  0.52484568  0.84005853    -0.31200
H310        H  0.33992788  0.51475352  0.85183193     0.16400
H311        H  0.34167040  0.46806049  0.75623431     0.16400
H312        H  0.46652433  0.49885481  0.79627178     0.16500
H313        H  0.39218183  0.53046539  0.72711832     0.16400
C314        C  0.15143205  0.29671208  0.99960783     0.30300
C315        C  0.18612290  0.31599385  0.04027280     0.30300
C316        C  0.13796329  0.30873632  0.02481301    -0.05900
C317        C  0.17198306  0.27612730  0.01197552    -0.06700
C318        C  0.17080255  0.31975694  0.99117195    -0.06500
C319        C  0.15472029  0.31786286  0.04584460    -0.05900
C320        C  0.18907996  0.28530235  0.03283560    -0.06700
C321        C  0.18812250  0.32965492  0.01172332    -0.06600
C322        C  0.13753325  0.31932358  0.06836579    -0.31900
N323        N  0.11128256  0.31327744  0.06082733     0.14600
C324        C  0.11192571  0.30692459  0.03425226    -0.31900
H325        H  0.09509244  0.29857871  0.02302674     0.16500
C326        C  0.20549988  0.26313410  0.04007382    -0.30900
N327        N  0.20006003  0.24194482  0.02337526     0.13300
C328        C  0.17970759  0.24983106  0.00613345    -0.30900
C329        C  0.20826406  0.34426737  0.99879703    -0.31200
N330        N  0.20436378  0.34328517  0.97142527     0.13800
H331        H  0.22543312  0.35363339  0.00870139     0.16400
C332        C  0.18239064  0.32736614  0.96685110    -0.31200
H333        H  0.17682387  0.31967639  0.94714851     0.16400
H334        H  0.17178377  0.23767928  0.98974189     0.16400
H335        H  0.14415235  0.32294774  0.08896319     0.16500
H336        H  0.22055919  0.26231047  0.05618110     0.16400
N337        N  0.78370528  0.36280849  0.16171514    -0.01300
C338        C  0.76279890  0.37432173  0.17518221    -0.12100
C339        C  0.75219096  0.39637215  0.16030261    -0.07600
C340        C  0.76874172  0.39841049  0.13753728    -0.08300
C341        C  0.78753254  0.37718046  0.13887572    -0.12200
N342        N  0.79017527  0.65203465  0.14569253    -0.01300
C343        C  0.76926739  0.64112070  0.15916050    -0.12100
C344        C  0.76195908  0.61665147  0.14796093    -0.07600
C345        C  0.78040863  0.61250378  0.12761931    -0.08300
C346        C  0.79732795  0.63433017  0.12656320    -0.12200
N347        N  0.80241983  0.66066893  0.86920526    -0.01300
C348        C  0.78456899  0.64509892  0.85506467    -0.12100
C349        C  0.77911016  0.62223909  0.87015223    -0.07600
C350        C  0.79392815  0.62447819  0.89428982    -0.08300
C351        C  0.80814253  0.64866918  0.89338995    -0.12200
N352        N  0.77865042  0.36388150  0.85411375    -0.01300
C353        C  0.79504150  0.34927128  0.87159449    -0.12100
C354        C  0.79792433  0.36198780  0.89638019    -0.07600
C355        C  0.78171264  0.38593424  0.89223439    -0.08300
C356        C  0.77021002  0.38727081  0.86569336    -0.12200
C357        C  0.65307012  0.50793897  0.78450233     0.30300
C358        C  0.69332525  0.46942007  0.80401754     0.30300
C359        C  0.64386975  0.48394266  0.80190246    -0.05900
C360        C  0.67165692  0.49343614  0.76244181    -0.06700
C361        C  0.67599414  0.51857660  0.80369627    -0.06500
C362        C  0.66333191  0.46445024  0.81054000    -0.05900
C363        C  0.69135924  0.47397169  0.77213862    -0.06700
C364        C  0.69551605  0.49919415  0.81335171    -0.06600
C365        C  0.64924200  0.44078373  0.81375124    -0.31900
N366        N  0.62239139  0.44582381  0.80992347     0.14600
C367        C  0.61892877  0.47233290  0.80377326    -0.31900
H368        H  0.60025265  0.48077019  0.79520448     0.16500
C369        C  0.70880200  0.46898237  0.75040566    -0.30900
N370        N  0.70258995  0.48532239  0.72843777     0.13300
C371        C  0.68017625  0.50041941  0.73616517    -0.30900
C372        C  0.71443960  0.51275745  0.82834799    -0.31200
N373        N  0.70843774  0.53978298  0.82778942     0.13800
H374        H  0.73178852  0.50333303  0.83846668     0.16400
C375        C  0.68522178  0.54347234  0.81247447    -0.31200
H376        H  0.67640945  0.56284372  0.80659285     0.16400
H377        H  0.67124463  0.51677190  0.72423184     0.16400
H378        H  0.65827374  0.42061689  0.81387636     0.16500
H379        H  0.72502919  0.45414608  0.75107647     0.16400
C380        C  0.87016696  0.31233766  0.98743647     0.30300
C381        C  0.90567163  0.29771877  0.03088514     0.30300
C382        C  0.87201925  0.33199315  0.01175220    -0.05900
C383        C  0.86385153  0.28496767  0.00310456    -0.06700
C384        C  0.90083716  0.30721984  0.98049859    -0.06500
C385        C  0.89087857  0.32538825  0.03281475    -0.05900
C386        C  0.88187723  0.27812159  0.02494936    -0.06700
C387        C  0.91767772  0.29912591  0.00254612    -0.06600
C388        C  0.88173434  0.33827080  0.05568807    -0.31900
N389        N  0.85751945  0.35042566  0.05042798     0.14600
C390        C  0.85123718  0.34665236  0.02395478    -0.31900
H391        H  0.83133550  0.35075390  0.01511361     0.16500
C392        C  0.87507982  0.25268654  0.03433742    -0.30900
N393        N  0.85351210  0.24343094  0.01983337     0.13300
C394        C  0.84691372  0.26248333  0.00053374    -0.30900
C395        C  0.93803912  0.28349010  0.99207831    -0.31200
N396        N  0.93829573  0.28549846  0.96518165     0.13800
H397        H  0.95102401  0.26928954  0.00306268     0.16400
C398        C  0.91475529  0.29853380  0.95730148    -0.31200
H399        H  0.90758526  0.30031729  0.93657617     0.16400
H400        H  0.83172035  0.25915742  0.98505593     0.16400
H401        H  0.89016724  0.33586683  0.07581656     0.16500
H402        H  0.88560641  0.24137240  0.05020781     0.16400
C403        C  0.88366941  0.69713293  0.97562074     0.30300
C404        C  0.91960581  0.71842376  0.01410655     0.30300
C405        C  0.91408977  0.69039668  0.97202441    -0.05900
C406        C  0.88451062  0.72833298  0.97726776    -0.06700
C407        C  0.87970590  0.68891897  0.00527475    -0.06500
C408        C  0.93197826  0.70038254  0.99204968    -0.05900
C409        C  0.90205941  0.73923915  0.99714979    -0.06700
C410        C  0.89718664  0.69999321  0.02488353    -0.06600
C411        C  0.95724538  0.70185709  0.98089338    -0.31900
N412        N  0.95550923  0.69491783  0.95455327     0.14600
C413        C  0.92923995  0.68950434  0.94878411    -0.31900
H414        H  0.92092869  0.68922741  0.92842134     0.16500
C415        C  0.89182315  0.76514752  0.00204337    -0.30900
N416        N  0.87125733  0.77088612  0.98426969     0.13300
C417        C  0.86666690  0.74866168  0.96909757    -0.30900
C418        C  0.88758042  0.69188131  0.04967845    -0.31200
N419        N  0.86600054  0.67559927  0.04529499     0.13800
H420        H  0.89492402  0.69808367  0.06940035     0.16400
C421        C  0.86108789  0.67360819  0.01844373    -0.31200
H422        H  0.84440949  0.66268873  0.00934930     0.16400
H423        H  0.84997113  0.74682103  0.95484411     0.16400
H424        H  0.97478797  0.71077292  0.99055679     0.16500
H425        H  0.89725510  0.77811084  0.01879461     0.16400
C426        C  0.62998499  0.50907650  0.21149970     0.30300
C427        C  0.66933936  0.47464164  0.19328362     0.30300
C428        C  0.64313986  0.51756740  0.18420809    -0.05900
C429        C  0.65552718  0.50622354  0.22995105    -0.06700
C430        C  0.62163850  0.47966056  0.20664521    -0.06500
C431        C  0.66326938  0.49908689  0.17443726    -0.05900
C432        C  0.67560001  0.48897154  0.22008224    -0.06700
C433        C  0.64168811  0.46244480  0.19745156    -0.06600
C434        C  0.68274057  0.51452910  0.16197718    -0.31900
N435        N  0.67620549  0.54111460  0.16395635     0.14600
C436        C  0.65264262  0.54321270  0.17771423    -0.31900
H437        H  0.64546682  0.56193122  0.18670772     0.16500
C438        C  0.69788425  0.49084306  0.23680330    -0.30900
N439        N  0.69178451  0.50746554  0.25751423     0.13300
C440        C  0.66599430  0.51730101  0.25361503    -0.30900
C441        C  0.63153946  0.43671673  0.19667004    -0.31200
N442        N  0.60571629  0.43769980  0.20572730     0.13800
H443        H  0.64267964  0.41835398  0.19164151     0.16400
C444        C  0.59923597  0.46395075  0.21153491    -0.31200
H445        H  0.58009795  0.47089735  0.21979650     0.16400
H446        H  0.65585243  0.53147040  0.26689006     0.16400
H447        H  0.70283342  0.50715910  0.15667941     0.16500
H448        H  0.71712576  0.48021892  0.23461466     0.16400
N449        N  0.42569903  0.17680557  0.74067452    -0.01300
C450        C  0.44207677  0.15755290  0.73019147    -0.12100
C451        C  0.43729429  0.13346454  0.74417413    -0.07600
C452        C  0.41717510  0.13769973  0.76353413    -0.08300
C453        C  0.41041565  0.16476737  0.75992835    -0.12200
N454        N  0.68956911  0.14067327  0.75166789    -0.01300
C455        C  0.70365391  0.12634517  0.77080412    -0.12100
C456        C  0.69166184  0.10147337  0.77617518    -0.07600
C457        C  0.66904395  0.10096050  0.75892022    -0.08300
C458        C  0.66849730  0.12515770  0.74412009    -0.12200
N459        N  0.62980887  0.81564758  0.76962028    -0.01300
C460        C  0.64690855  0.83234212  0.78316743    -0.12100
C461        C  0.63522897  0.85761834  0.78714229    -0.07600
C462        C  0.61034328  0.85595117  0.77378963    -0.08300
C463        C  0.60741551  0.83024445  0.76278517    -0.12200
N464        N  0.37510410  0.86769411  0.77735404    -0.01300
C465        C  0.36421633  0.88635187  0.79453054    -0.12100
C466        C  0.37976163  0.90975451  0.79649936    -0.07600
C467        C  0.40136804  0.90487195  0.77883903    -0.08300
C468        C  0.39782569  0.87901896  0.76752678    -0.12200
C469        C  0.49480228  0.77678972  0.64076641     0.30300
C470        C  0.53586148  0.78859972  0.67664138     0.30300
C471        C  0.48833728  0.79915340  0.66120695    -0.05900
C472        C  0.50434896  0.75268990  0.66003519    -0.06700
C473        C  0.52179494  0.78552817  0.62833994    -0.06500
C474        C  0.50931616  0.80549049  0.67898944    -0.05900
C475        C  0.52539361  0.75937988  0.67819877    -0.06700
C476        C  0.54348995  0.79026992  0.64611352    -0.06600
C477        C  0.49772380  0.81973611  0.70014697    -0.31900
N478        N  0.47052525  0.82222805  0.69573931     0.14600
C479        C  0.46443874  0.80885717  0.67257577    -0.31900
H480        H  0.44399442  0.80523863  0.66521062     0.16500
C481        C  0.53218013  0.73668185  0.69328307    -0.30900
N482        N  0.51572467  0.71617527  0.68600795     0.13300
C483        C  0.49861199  0.72548539  0.66583871    -0.30900
C484        C  0.56664101  0.78196419  0.63158813    -0.31200
N485        N  0.55946349  0.77493118  0.60573558     0.13800
H486        H  0.58684053  0.77899816  0.64012547     0.16400
C487        C  0.53223321  0.77768575  0.60383277    -0.31200
H488        H  0.52024206  0.77255055  0.58618888     0.16400
H489        H  0.48282841  0.71341843  0.65674465     0.16400
H490        H  0.50810808  0.82645525  0.71828616     0.16500
H491        H  0.54822618  0.73493804  0.70839642     0.16400
C492        C  0.34605247  0.99993965  0.87144976     0.30300
C493        C  0.33071415  0.04266926  0.90514339     0.30300
C494        C  0.36202797  0.02690369  0.86834363    -0.05900
C495        C  0.31621365  0.01036734  0.86860833    -0.06700
C496        C  0.34705322  0.99390718  0.90252480    -0.06500
C497        C  0.35401115  0.04895184  0.88493219    -0.05900
C498        C  0.30880028  0.03228709  0.88510014    -0.06700
C499        C  0.34070593  0.01618097  0.91911825    -0.06600
C500        C  0.36040417  0.07225271  0.87000696    -0.31900
N501        N  0.37385901  0.06542761  0.84697638     0.14600
C502        C  0.37414642  0.03794614  0.84553941    -0.31900
H503        H  0.38051092  0.02668498  0.82791102     0.16500
C504        C  0.28310573  0.04088242  0.87672995    -0.30900
N505        N  0.27412540  0.02380641  0.85730894     0.13300
C506        C  0.29359077  0.00477003  0.85282668    -0.30900
C507        C  0.33286220  0.00621807  0.94391129    -0.31200
N508        N  0.33162012  0.97894997  0.94329412     0.13800
H509        H  0.32524931  0.01834978  0.96042838     0.16400
C510        C  0.33929892  0.97123249  0.91787523    -0.31200
H511        H  0.33651588  0.95111242  0.90978996     0.16400
H512        H  0.29092373  0.98837796  0.83870530     0.16400
H513        H  0.35374823  0.09271338  0.87455596     0.16500
H514        H  0.27223917  0.05885813  0.88334770     0.16400
C515        C  0.72508360  0.01433227  0.85491237     0.30300
C516        C  0.73754111  0.97301965  0.89111500     0.30300
C517        C  0.70709308  0.98816776  0.85318128    -0.05900
C518        C  0.75418308  0.00223171  0.85330545    -0.06700
C519        C  0.72439914  0.02200940  0.88583389    -0.06500
C520        C  0.71404837  0.96726843  0.87136467    -0.05900
C521        C  0.76032638  0.98109005  0.87127144    -0.06700
C522        C  0.72892507  0.00017412  0.90367992    -0.06600
C523        C  0.70174251  0.94393121  0.86225266    -0.31900
N524        N  0.68576612  0.94978378  0.84044632     0.14600
C525        C  0.68932460  0.97654286  0.83420323    -0.31900
H526        H  0.68091010  0.98643183  0.81632677     0.16500
C527        C  0.78609331  0.97154435  0.86493550    -0.30900
N528        N  0.79622909  0.98675185  0.84438402     0.13300
C529        C  0.77678692  0.00560189  0.83730356    -0.30900
C530        C  0.73578753  0.01020730  0.92879198    -0.31200
N531        N  0.73905530  0.03714274  0.92708612     0.13800
H532        H  0.74087512  0.99827901  0.94660713     0.16400
C533        C  0.73333085  0.04453656  0.90095366    -0.31200
H534        H  0.73803817  0.06430288  0.89287942     0.16400
H535        H  0.77869192  0.02044269  0.82128393     0.16400
H536        H  0.70551842  0.92356497  0.86975320     0.16500
H537        H  0.79617915  0.95402383  0.87397754     0.16400
C538        C  0.52126640  0.18872159  0.64563474     0.30300
C539        C  0.55926316  0.20867594  0.60985288     0.30300
C540        C  0.51439790  0.18474023  0.61521125    -0.05900
C541        C  0.52568157  0.21938970  0.64594815    -0.06700
C542        C  0.55025565  0.17668860  0.64774727    -0.06500
C543        C  0.53445052  0.19429717  0.59706510    -0.05900
C544        C  0.54553712  0.22972582  0.62888344    -0.06700
C545        C  0.56966400  0.18727393  0.63051545    -0.06600
C546        C  0.52114972  0.20151159  0.57337298    -0.31900
N547        N  0.49421576  0.19814080  0.57616922     0.14600
C548        C  0.48976907  0.18897749  0.60159199    -0.31900
H549        H  0.47000157  0.18965465  0.61095610     0.16500
C550        C  0.54893702  0.25644224  0.63689558    -0.30900
N551        N  0.53035494  0.26252352  0.65616113     0.13300
C552        C  0.51593470  0.24015401  0.66152492    -0.30900
C553        C  0.59472815  0.18043571  0.64190074    -0.31200
N554        N  0.59102901  0.16420800  0.66395182     0.13800
H555        H  0.61374912  0.18914518  0.63600146     0.16400
C556        C  0.56381155  0.16162813  0.66718908    -0.31200
H557        H  0.55437727  0.15147493  0.68401098     0.16400
H558        H  0.50051996  0.23883956  0.67687910     0.16400
H559        H  0.52993908  0.21283334  0.55692528     0.16500
H560        H  0.56480117  0.26997648  0.63068556     0.16400
O561        O  0.83548049  0.77540775  0.74021751    -0.80600
O562        O  0.79619291  0.82118748  0.85184729    -0.65300
O563        O  0.82289296  0.80870472  0.78211016    -1.11900
C564        C  0.90078726  0.78134389  0.83410385     1.06300
O565        O  0.83281586  0.84524369  0.85799811    -0.78500
O566        O  0.88114108  0.84335281  0.83512683    -0.66100
Ni567      Ni  0.80360536  0.78366772  0.76049256     1.34900
C568        C  0.87915662  0.84831929  0.81007280     0.85000
O569        O  0.77572263  0.82786830  0.80270183    -0.79000
O570        O  0.76893894  0.79178529  0.77652259    -0.89300
C571        C  0.80902166  0.83887125  0.86482043     0.84600
O572        O  0.81199808  0.75589738  0.78652281    -0.67500
O573        O  0.88959563  0.79239494  0.85455497    -0.86800
C574        C  0.80395129  0.75713303  0.81086725     0.85400
C575        C  0.76037145  0.81262508  0.78915455     1.07000
H576        H  0.83994072  0.78165137  0.83739186     0.38800
O577        O  0.84213037  0.79945763  0.82971960    -1.09500
O578        O  0.86887912  0.83198502  0.79356316    -0.66100
Ni579      Ni  0.85732988  0.79573005  0.79561321     1.26300
O580        O  0.79400118  0.77885518  0.82043616    -0.66300
O581        O  0.89144632  0.78318336  0.80999207    -0.78600
C582        C  0.85896032  0.78582515  0.74020240     0.84800
O583        O  0.87145336  0.79341586  0.76109886    -0.65800
Ni584      Ni  0.86107453  0.81862423  0.85643661     1.27400
Ni585      Ni  0.80873356  0.81434503  0.81682188     1.26100
H586        H  0.82418819  0.82575995  0.77255291     0.39400
O587        O  0.92569829  0.18955810  0.84965933    -0.80600
O588        O  0.81257175  0.18186868  0.81997991    -0.65300
O589        O  0.87485682  0.18827991  0.86452218    -1.11900
C590        C  0.88318812  0.09421450  0.84306298     1.06300
O591        O  0.80180537  0.14937756  0.84811417    -0.78500
O592        O  0.83139257  0.12250652  0.88372609    -0.66100
Ni593      Ni  0.89926831  0.21635480  0.85771780     1.34900
C594        C  0.84785117  0.13212567  0.90087444     0.85000
O595        O  0.83452292  0.22456979  0.84602327    -0.79000
O596        O  0.87185739  0.24299832  0.86490329    -0.89300
C597        C  0.79629861  0.16389971  0.82760742     0.84600
O598        O  0.89480885  0.22271507  0.82001474    -0.67500
O599        O  0.85719250  0.09470235  0.84183770    -0.86800
C600        C  0.88106002  0.21075763  0.80209439     0.85400
C601        C  0.84704305  0.24447740  0.85689868     1.07000
H602        H  0.86105618  0.14627702  0.81976033     0.38800
O603        O  0.85539110  0.14933174  0.83816964    -1.09500
O604        O  0.87070188  0.14215767  0.89434412    -0.66100
Ni605      Ni  0.88741992  0.15122793  0.85968906     1.26300
O606        O  0.86262055  0.19408555  0.80806117    -0.66300
O607        O  0.89772077  0.11379868  0.85205235    -0.78600
C608        C  0.93504336  0.17693309  0.86998672     0.84800
O609        O  0.92143376  0.15715797  0.87911371    -0.65800
Ni610      Ni  0.82963454  0.12238456  0.84535405     1.27400
Ni611      Ni  0.84416654  0.18662658  0.84162294     1.26100
H612        H  0.86856720  0.19058765  0.88281165     0.39400
N613        N  0.89873837  0.97472616  0.79062895    -0.01300
C614        C  0.91494134  0.99622420  0.78749920    -0.12100
C615        C  0.93649412  0.98897743  0.77077496    -0.07600
C616        C  0.93358056  0.96198302  0.76331311    -0.08300
C617        C  0.91028331  0.95388688  0.77680860    -0.12200
N618        N  0.05627459  0.22208096  0.89149007    -0.01300
C619        C  0.07580846  0.23769329  0.90256679    -0.12100
C620        C  0.06667331  0.25140022  0.92553256    -0.07600
C621        C  0.03922652  0.24375369  0.92774022    -0.08300
C622        C  0.03428695  0.22524864  0.90699844    -0.12200
O623        O  0.23341847  0.23464934  0.76009291    -0.80600
O624        O  0.28720234  0.18816416  0.87098582    -0.65300
O625        O  0.25265935  0.20200339  0.80177622    -1.11900
C626        C  0.17715199  0.20475728  0.86036105     1.06300
O627        O  0.26014699  0.15416218  0.86823982    -0.78500
O628        O  0.21377392  0.14614173  0.84192217    -0.66100
Ni629      Ni  0.26674425  0.23066103  0.78034018     1.34900
C630        C  0.20540965  0.15088111  0.81811553     0.85000
O631        O  0.30559106  0.19219228  0.82038162    -0.79000
O632        O  0.30246027  0.23017057  0.79665590    -0.89300
C633        C  0.27716779  0.16736200  0.88196985     0.84600
O634        O  0.25444310  0.25483430  0.80711270    -0.67500
O635        O  0.18904766  0.18480370  0.87246665    -0.86800
C636        C  0.26388706  0.25561673  0.83119274     0.85400
C637        C  0.31586192  0.20979577  0.80531771     1.07000
H638        H  0.23574418  0.21433611  0.86284724     0.38800
O639        O  0.23627443  0.19916479  0.85055724    -1.09500
O640        O  0.20554621  0.17429540  0.80741267    -0.66100
Ni641      Ni  0.21796340  0.20948789  0.81872660     1.26300
O642        O  0.27524112  0.23484489  0.84274933    -0.66300
O643        O  0.18559412  0.21580287  0.83857201    -0.78600
C644        C  0.20833622  0.23223838  0.76513920     0.84800
O645        O  0.19946717  0.22261159  0.78705366    -0.65800
Ni646      Ni  0.22457711  0.16905305  0.87036537     1.27400
Ni647      Ni  0.27117649  0.19595942  0.83591135     1.26100
H648        H  0.25238426  0.18542303  0.79147329     0.39400
N649        N  0.18441766  0.02831563  0.78341490    -0.01300
C650        C  0.17146797  0.00664636  0.77297183    -0.12100
C651        C  0.15185239  0.01508261  0.75412249    -0.07600
C652        C  0.15229249  0.04329185  0.75379383    -0.08300
C653        C  0.17303513  0.05050502  0.77150612    -0.12200
O654        O  0.25045418  0.79093941  0.84093868    -0.80600
O655        O  0.19996028  0.90072222  0.84418730    -0.65300
O656        O  0.21102552  0.82552515  0.85696621    -1.11900
C657        C  0.18262960  0.82212408  0.76576488     1.06300
O658        O  0.15944488  0.88969561  0.83057695    -0.78500
O659        O  0.14029873  0.84108761  0.81522541    -0.66100
Ni660      Ni  0.24449928  0.81251934  0.87186383     1.34900
C661        C  0.14420066  0.81734170  0.82446952     0.85000
O662        O  0.21766783  0.87249603  0.88695847    -0.79000
O663        O  0.24015792  0.83501395  0.90233537    -0.89300
C664        C  0.17748640  0.90746678  0.83331812     0.84600
O665        O  0.26874434  0.83769917  0.85708874    -0.67500
O666        O  0.16949099  0.84419476  0.76988045    -0.86800
C667        C  0.26506867  0.85894693  0.84315019     0.85400
C668        C  0.23212842  0.85959389  0.90438675     1.07000
H669        H  0.21126603  0.85948749  0.80334185     0.38800
O670        O  0.19742121  0.85316357  0.81542424    -1.09500
O671        O  0.16744430  0.80679847  0.82874734    -0.66100
Ni672      Ni  0.20372396  0.81561797  0.82025502     1.26300
O673        O  0.24209704  0.86992108  0.83874464    -0.66300
O674        O  0.19625982  0.80856250  0.78349814    -0.78600
C675        C  0.23431515  0.77182094  0.83702444     0.84800
O676        O  0.21123108  0.77764464  0.82689020    -0.65800
Ni677      Ni  0.16439258  0.86670053  0.80039025     1.27400
Ni678      Ni  0.20641937  0.86339708  0.85147505     1.26100
H679        H  0.19659964  0.81930755  0.86841149     0.39400
N680        N  0.02727684  0.75562021  0.83290893    -0.01300
C681        C  0.00906061  0.74192512  0.84740615    -0.12100
C682        C  0.02204692  0.72901817  0.86876000    -0.07600
C683        C  0.04920777  0.73505593  0.86716319    -0.08300
C684        C  0.05161520  0.75228759  0.84536458    -0.12200
N685        N  0.24441633  0.87961583  0.02251416    -0.01300
C686        C  0.24768188  0.88968049  0.04739419    -0.12100
C687        C  0.26559515  0.91118821  0.04741423    -0.07600
C688        C  0.27358200  0.91480905  0.02052786    -0.08300
C689        C  0.25921008  0.89550163  0.00629959    -0.12200
O690        O  0.17212708  0.81309447  0.27180033    -0.80600
O691        O  0.18772248  0.84742069  0.15652945    -0.65300
O692        O  0.18047988  0.80267670  0.21818858    -1.11900
C693        C  0.27476879  0.82089021  0.22854092     1.06300
O694        O  0.21878091  0.81677724  0.14889106    -0.78500
O695        O  0.24928016  0.78328110  0.17888669    -0.66100
Ni696      Ni  0.15004291  0.80467125  0.24059626     1.34900
C697        C  0.24079526  0.76652910  0.19611034     0.85000
O698        O  0.14630695  0.81847073  0.17555395    -0.79000
O699        O  0.12741351  0.79564429  0.20990301    -0.89300
C700        C  0.20559935  0.83759131  0.14101470     0.84600
O701        O  0.14019785  0.84224680  0.23669644    -0.67500
O702        O  0.27373185  0.82535124  0.20300076    -0.86800
C703        C  0.15046900  0.86183613  0.22387464     0.85400
C704        C  0.12796374  0.80325746  0.18509698     1.07000
H705        H  0.22127484  0.84913342  0.20626638     0.38800
O706        O  0.21893501  0.83054520  0.20074476    -1.09500
O707        O  0.22732658  0.77382509  0.21669824    -0.66100
Ni708      Ni  0.21650205  0.80868942  0.23176723     1.26300
O709        O  0.16946637  0.85847224  0.20663785    -0.66300
O710        O  0.25396298  0.81496257  0.24282727    -0.78600
C711        C  0.19246678  0.79883824  0.28007339     0.84800
O712        O  0.21039345  0.78970358  0.26418541    -0.65800
Ni713      Ni  0.24621919  0.82165244  0.17574243     1.27400
Ni714      Ni  0.18233338  0.82580590  0.18800634     1.26100
H715        H  0.18008198  0.78452398  0.21097106     0.39400
N716        N  0.01724839  0.78164911  0.12756460    -0.01300
C717        C  0.04043388  0.77334307  0.11513738    -0.12100
C718        C  0.03533772  0.76181356  0.08938217    -0.07600
C719        C  0.00631376  0.76318019  0.08659802    -0.08300
C720        C  0.99658103  0.77592019  0.11029129    -0.12200
O721        O  0.88139046  0.87474256  0.20069917    -0.80600
O722        O  0.82900925  0.77714845  0.14145826    -0.65300
O723        O  0.84009179  0.84369585  0.17757318    -1.11900
C724        C  0.84169212  0.78587249  0.25443595     1.06300
O725        O  0.79533244  0.77215386  0.16912201    -0.78500
O726        O  0.78414741  0.79878716  0.21300487    -0.66100
Ni727      Ni  0.86592217  0.86921171  0.16496868     1.34900
C728        C  0.78567359  0.82386014  0.21778091     0.85000
O729        O  0.82810019  0.82841802  0.12540002    -0.79000
O730        O  0.85094213  0.86749251  0.12890337    -0.89300
C731        C  0.80933994  0.76348509  0.14970729     0.84600
O732        O  0.89432460  0.84381083  0.15554566    -0.67500
O733        O  0.82547330  0.77099287  0.24086422    -0.86800
C734        C  0.89377847  0.81903053  0.14834531     0.85400
C735        C  0.83542330  0.85117209  0.11635638     1.07000
H736        H  0.85668889  0.78354501  0.19335443     0.38800
O737        O  0.84003449  0.79421422  0.19305180    -1.09500
O738        O  0.80824667  0.83559664  0.21946702    -0.66100
Ni739      Ni  0.84554729  0.82669330  0.21209995     1.26300
O740        O  0.87241637  0.80491490  0.14951864    -0.66300
O741        O  0.85053094  0.80852732  0.24604921    -0.78600
C742        C  0.86725421  0.87744433  0.22202161     0.84800
O743        O  0.85125825  0.85935222  0.22944350    -0.65800
Ni744      Ni  0.81090141  0.77193401  0.20465463     1.27400
Ni745      Ni  0.83481329  0.81088435  0.15858659     1.26100
H746        H  0.82285626  0.85333998  0.17724811     0.39400
N747        N  0.80110594  0.86400581  0.98892412    -0.01300
C748        C  0.79431221  0.87750279  0.01144745    -0.12100
C749        C  0.77755360  0.89957009  0.00534103    -0.07600
C750        C  0.77435866  0.90005109  0.97757939    -0.08300
C751        C  0.78898296  0.87788963  0.96848719    -0.12200
O752        O  0.17123162  0.12154719  0.22377804    -0.80600
O753        O  0.21500977  0.23294103  0.20025386    -0.65300
O754        O  0.16503123  0.17482341  0.21144912    -1.11900
C755        C  0.19606305  0.15235296  0.12297978     1.06300
O756        O  0.19160592  0.24215099  0.16298001    -0.78500
O757        O  0.15504234  0.21047027  0.13863988    -0.66100
Ni758      Ni  0.16575745  0.15400148  0.24376450     1.34900
C759        C  0.13635245  0.19597562  0.14811917     0.85000
O760        O  0.18313841  0.21901691  0.24322438    -0.79000
O761        O  0.16144687  0.18577465  0.26545711    -0.89300
C762        C  0.21014724  0.24834267  0.17985079     0.84600
O763        O  0.20359723  0.15317246  0.25077128    -0.67500
O764        O  0.19743747  0.17800196  0.11982155    -0.86800
C765        C  0.22390481  0.16369980  0.23968049     0.85400
C766        C  0.17090378  0.20969218  0.26401605     1.07000
H767        H  0.21511344  0.17959711  0.17344899     0.38800
O768        O  0.19675515  0.18685672  0.17350561    -1.09500
O769        O  0.14095713  0.17443759  0.16191052    -0.66100
Ni770      Ni  0.17303187  0.15671909  0.17763880     1.26300
O771        O  0.22154988  0.18281752  0.22223685    -0.66300
O772        O  0.18457666  0.14078250  0.14326123    -0.78600
C773        C  0.15303670  0.11293645  0.20800325     0.84800
O774        O  0.14953947  0.12554578  0.18547001    -0.65800
Ni775      Ni  0.19370835  0.20932524  0.14221924     1.27400
Ni776      Ni  0.19050274  0.20349417  0.20784474     1.26100
H777        H  0.14704009  0.18296617  0.21021975     0.39400
N778        N  0.00687199  0.23648029  0.14960906    -0.01300
C779        C  0.02903127  0.24685343  0.13766073    -0.12100
C780        C  0.02123786  0.26742774  0.11857301    -0.07600
C781        C  0.99173142  0.26630342  0.11653074    -0.08300
C782        C  0.98480942  0.24815353  0.13746572    -0.12200
N783        N  0.11569828  0.98998798  0.23755773    -0.01300
C784        C  0.10146339  0.01267900  0.24387350    -0.12100
C785        C  0.07881674  0.00664957  0.26032401    -0.07600
C786        C  0.07885213  0.97639162  0.26210632    -0.08300
C787        C  0.10251324  0.96836706  0.24749414    -0.12200
N788        N  0.26050863  0.14179366  0.01364718    -0.01300
C789        C  0.26127233  0.12182280  0.03244720    -0.12100
C790        C  0.27901782  0.10094811  0.02435939    -0.07600
C791        C  0.28863147  0.10799946  0.99835062    -0.08300
C792        C  0.27662574  0.13351300  0.99298328    -0.12200
N793        N  0.84467805  0.99742185  0.27799846    -0.01300
C794        C  0.85959893  0.01694301  0.28972733    -0.12100
C795        C  0.88084940  0.00556591  0.30507138    -0.07600
C796        C  0.87830834  0.97765707  0.30265558    -0.08300
C797        C  0.85644532  0.97350676  0.28502831    -0.12200
O798        O  0.76324082  0.18580565  0.25226861    -0.80600
O799        O  0.87205468  0.21852148  0.19559032    -0.65300
O800        O  0.79920305  0.19938200  0.21108246    -1.11900
C801        C  0.84204810  0.11511916  0.23061695     1.06300
O802        O  0.87706107  0.18209623  0.17087267    -0.78500
O803        O  0.84537372  0.13883020  0.17024606    -0.66100
Ni804      Ni  0.78056037  0.21825728  0.23872794     1.34900
C805        C  0.82100112  0.14488398  0.16378058     0.85000
O806        O  0.82415922  0.24435087  0.19264397    -0.79000
O807        O  0.79420548  0.25276356  0.22586541    -0.89300
C808        C  0.88489313  0.20542193  0.17768697     0.84600
O809        O  0.80920836  0.21364025  0.26527958    -0.67500
O810        O  0.86353921  0.12492466  0.22059991    -0.86800
C811        C  0.83390330  0.22024568  0.26269972     0.85400
C812        C  0.80765461  0.25974236  0.20496653     1.07000
H813        H  0.85187136  0.17529098  0.23468472     0.38800
O814        O  0.84453769  0.17450885  0.21649872    -1.09500
O815        O  0.80463612  0.15544147  0.18057034    -0.66100
Ni816      Ni  0.80802123  0.16267839  0.21883884     1.26300
O817        O  0.84437740  0.22404996  0.23968036    -0.66300
O818        O  0.81838173  0.12586266  0.22751054    -0.78600
C819        C  0.75507371  0.16541971  0.23874232     0.84800
O820        O  0.77044426  0.15371353  0.22172852    -0.65800
Ni821      Ni  0.86959024  0.15377806  0.19627336     1.27400
Ni822      Ni  0.83554649  0.20985230  0.20426542     1.26100
H823        H  0.78853780  0.20090596  0.19455225     0.39400
N824        N  0.80696812  0.13654965  0.02986585    -0.01300
C825        C  0.80167796  0.12050758  0.00821930    -0.12100
C826        C  0.78370505  0.09979455  0.01540303    -0.07600
C827        C  0.77870888  0.10249598  0.04345551    -0.08300
C828        C  0.79359268  0.12539212  0.05118336    -0.12200
N829        N  0.19293392  0.75351095  0.40672306    -0.01300
C830        C  0.17919377  0.77049868  0.38979553    -0.12100
C831        C  0.15482578  0.77839131  0.40073831    -0.07600
C832        C  0.15420505  0.76512903  0.42559193    -0.08300
C833        C  0.17805722  0.74964400  0.42915330    -0.12200
N834        N  0.18436042  0.75585192  0.65235303    -0.01300
C835        C  0.16838984  0.74513480  0.63267680    -0.12100
C836        C  0.14350812  0.75975245  0.63026804    -0.07600
C837        C  0.14421496  0.78068646  0.64939489    -0.08300
C838        C  0.16937466  0.77676491  0.66241995    -0.12200
N839        N  0.87474761  0.75513551  0.63307379    -0.01300
C840        C  0.88440577  0.74051648  0.61265424    -0.12100
C841        C  0.90997733  0.74875816  0.60578845    -0.07600
C842        C  0.91578438  0.77134136  0.62158867    -0.08300
C843        C  0.89389185  0.77369033  0.63892094    -0.12200
N844        N  0.86732626  0.72672159  0.37130684    -0.01300
C845        C  0.88306501  0.74318646  0.35568551    -0.12100
C846        C  0.90897075  0.74746854  0.36659918    -0.07600
C847        C  0.90760087  0.73250155  0.39147122    -0.08300
C848        C  0.88170227  0.71900934  0.39415676    -0.12200
C849        C  0.83607981  0.63733196  0.47847709     0.30300
C850        C  0.81865390  0.59659046  0.51458852     0.30300
C851        C  0.84183165  0.64167584  0.50889890    -0.05900
C852        C  0.80490629  0.63239608  0.47967447    -0.06700
C853        C  0.84841237  0.60878370  0.47533588    -0.06500
C854        C  0.83267050  0.62142139  0.52733232    -0.05900
C855        C  0.79597205  0.61152302  0.49739170    -0.06700
C856        C  0.83975479  0.58856312  0.49336353    -0.06600
C857        C  0.82892553  0.63436986  0.55172225    -0.31900
N858        N  0.83698411  0.66034907  0.54923111     0.14600
C859        C  0.84346596  0.66513799  0.52321817    -0.31900
H860        H  0.84783068  0.68494185  0.51508137     0.16500
C861        C  0.76982995  0.61938026  0.50516434    -0.30900
N862        N  0.76214308  0.64335183  0.49321865     0.13300
C863        C  0.78417894  0.65177121  0.47922042    -0.30900
C864        C  0.84368305  0.56424826  0.48068374    -0.31200
N865        N  0.85297256  0.56885649  0.45543862     0.13800
H866        H  0.83385847  0.54567194  0.48662834     0.16400
C867        C  0.85754864  0.59567055  0.45274480    -0.31200
H868        H  0.86143026  0.60538187  0.43353905     0.16400
H869        H  0.78694081  0.67218638  0.47189279     0.16400
H870        H  0.81980985  0.62591994  0.56963613     0.16500
H871        H  0.75840721  0.60913021  0.52056477     0.16400
C872        C  0.02219173  0.87140715  0.29718944     0.30300
C873        C  0.98948921  0.82674911  0.31342759     0.30300
C874        C  0.99580192  0.87745613  0.31249137    -0.05900
C875        C  0.01196591  0.85173649  0.27435546    -0.06700
C876        C  0.03523571  0.85035138  0.31769898    -0.06500
C877        C  0.97916252  0.85575242  0.31953883    -0.05900
C878        C  0.99571265  0.82947343  0.28220169    -0.06700
C879        C  0.01903739  0.82785675  0.32496864    -0.06600
C880        C  0.95467951  0.86703446  0.32756655    -0.31900
N881        N  0.95670503  0.89445503  0.32704481     0.14600
C882        C  0.98196954  0.90079427  0.31891229    -0.31900
H883        H  0.98826289  0.92125662  0.31464500     0.16500
C884        C  0.99297082  0.81357245  0.25895828    -0.30900
N885        N  0.00718753  0.82424526  0.23778809     0.13300
C886        C  0.01873565  0.84751314  0.24735466    -0.30900
C887        C  0.03480324  0.81116111  0.34164272    -0.31200
N888        N  0.05928394  0.82290085  0.34585741     0.13800
H889        H  0.02889913  0.79185737  0.35003237     0.16400
C890        C  0.05921569  0.84705579  0.33264519    -0.31200
H891        H  0.07555051  0.86112085  0.33486544     0.16400
H892        H  0.03240809  0.86006905  0.23600603     0.16400
H893        H  0.93599065  0.85620841  0.33067477     0.16500
H894        H  0.98143274  0.79535185  0.25764409     0.16400
C895        C  0.01709676  0.89397258  0.70686660     0.30300
C896        C  0.06156713  0.86284721  0.68950284     0.30300
C897        C  0.04379624  0.90914498  0.70134206    -0.05900
C898        C  0.02661601  0.87071158  0.72516484    -0.06700
C899        C  0.01281361  0.87845875  0.68003699    -0.06500
C900        C  0.06664152  0.89364120  0.69344926    -0.05900
C901        C  0.04972813  0.85616685  0.71762147    -0.06700
C902        C  0.03558423  0.86307600  0.67118798    -0.06600
C903        C  0.08891711  0.90917476  0.70082483    -0.31900
N904        N  0.08037391  0.93395198  0.71014587     0.14600
C905        C  0.05277220  0.93394219  0.70983994    -0.31900
H906        H  0.03961726  0.95022743  0.71645732     0.16500
C907        C  0.05431859  0.83746103  0.73790426    -0.30900
N908        N  0.03250189  0.83717395  0.75436756     0.13300
C909        C  0.01538691  0.85757491  0.74669596    -0.30900
C910        C  0.02589930  0.84335502  0.65402507    -0.31200
N911        N  0.99832529  0.84494979  0.65264272     0.13800
H912        H  0.03847501  0.82801535  0.64470400     0.16400
C913        C  0.99037108  0.86557230  0.66916392    -0.31200
H914        H  0.96956313  0.86906333  0.67518210     0.16400
H915        H  0.99538236  0.86157714  0.75470271     0.16400
H916        H  0.10983159  0.90203914  0.70118072     0.16500
H917        H  0.07188094  0.82420004  0.74038618     0.16400
C918        C  0.22412984  0.66273605  0.49950600     0.30300
C919        C  0.24470118  0.61919620  0.52943537     0.30300
C920        C  0.23122302  0.63737000  0.48344168    -0.05900
C921        C  0.25015498  0.66780336  0.51643890    -0.06700
C922        C  0.20525780  0.65160624  0.52116256    -0.06500
C923        C  0.24106669  0.61508385  0.49827950    -0.05900
C924        C  0.26129573  0.64557923  0.53054121    -0.06700
C925        C  0.21538060  0.62953317  0.53708437    -0.06600
C926        C  0.24129253  0.59371464  0.48016957    -0.31900
N927        N  0.23306785  0.60255588  0.45523225     0.14600
C928        C  0.22689225  0.62935579  0.45705272    -0.31900
H929        H  0.21889828  0.64184375  0.44067250     0.16500
C930        C  0.28612607  0.65382660  0.54101987    -0.30900
N931        N  0.28937440  0.68057021  0.53494686     0.13300
C932        C  0.26690322  0.68938784  0.52127756    -0.30900
C933        C  0.20351522  0.63357609  0.56231497    -0.31200
N934        N  0.18829907  0.65668134  0.56221674     0.13800
H935        H  0.20747733  0.62211910  0.58051976     0.16400
C936        C  0.18876346  0.66716842  0.53714785    -0.31200
H937        H  0.18273461  0.68793286  0.53258268     0.16400
H938        H  0.26377947  0.71004513  0.51442894     0.16400
H939        H  0.24605379  0.57277023  0.48462489     0.16500
H940        H  0.30107920  0.64112183  0.55141900     0.16400
N941        N  0.38551999  0.28621116  0.49549475    -0.01300
C942        C  0.39776140  0.27295698  0.51641815    -0.12100
C943        C  0.41891062  0.25619885  0.50686499    -0.07600
C944        C  0.41903105  0.25920477  0.47855237    -0.08300
C945        C  0.39863108  0.27839126  0.47276805    -0.12200
N946        N  0.30365272  0.51869518  0.34517241    -0.01300
C947        C  0.29320929  0.54032087  0.35860586    -0.12100
C948        C  0.26909578  0.53318967  0.37172084    -0.07600
C949        C  0.26781427  0.50494019  0.36846612    -0.08300
C950        C  0.28922346  0.49710530  0.35213557    -0.12200
N951        N  0.51160629  0.32105977  0.25134558    -0.01300
C952        C  0.53735923  0.32878535  0.24728444    -0.12100
C953        C  0.53853816  0.34645200  0.22543727    -0.07600
C954        C  0.51205096  0.34950104  0.21591176    -0.08300
C955        C  0.49595977  0.33476880  0.23329922    -0.12200
O956        O  0.29230368  0.29958553  0.36251433    -0.80600
O957        O  0.38817795  0.34835324  0.30453971    -0.65300
O958        O  0.31690457  0.32899594  0.32510338    -1.11900
C959        C  0.34881346  0.24122219  0.29771680     1.06300
O960        O  0.37587102  0.32631561  0.26841549    -0.78500
O961        O  0.34438183  0.28516949  0.25611458    -0.66100
Ni962      Ni  0.30144295  0.33670178  0.35862807     1.34900
C963        C  0.32269503  0.29892725  0.25717241     0.85000
O964        O  0.34478466  0.37707061  0.32494656    -0.79000
O965        O  0.31063542  0.37403418  0.35525197    -0.89300
C966        C  0.39261685  0.34153995  0.28012278     0.84600
O967        O  0.33218889  0.32840169  0.37984539    -0.67500
O968        O  0.37091653  0.25282554  0.29113983    -0.86800
C969        C  0.35724444  0.32570143  0.37532433     0.85400
C970        C  0.32667598  0.38752953  0.34039068     1.07000
H971        H  0.36794263  0.29292668  0.32634912     0.38800
O972        O  0.35777349  0.30106513  0.31148176    -1.09500
O973        O  0.31115939  0.30319586  0.27951795    -0.66100
Ni974      Ni  0.32133493  0.29167911  0.31540186     1.26300
O975        O  0.36833526  0.33291765  0.35332594    -0.66300
O976        O  0.32735013  0.25431221  0.30485266    -0.78600
C977        C  0.27644225  0.28917811  0.34536115     0.84800
O978        O  0.28434341  0.28447841  0.32159487    -0.65800
Ni979      Ni  0.37458206  0.28954436  0.27976933     1.27400
Ni980      Ni  0.35270433  0.33939043  0.31750674     1.26100
H981        H  0.30514631  0.33802047  0.31197687     0.39400
O982        O  0.71113761  0.24822132  0.29168263    -0.80600
O983        O  0.73577988  0.36080211  0.34085975    -0.65300
O984        O  0.72131826  0.28794658  0.33039750    -1.11900
C985        C  0.63148731  0.32174154  0.31562291     1.06300
O986        O  0.70041805  0.36784828  0.36714240    -0.78500
O987        O  0.66348109  0.32939950  0.37647558    -0.66100
Ni988      Ni  0.74151733  0.26949691  0.30316058     1.34900
C989        C  0.66786642  0.30410224  0.37892628     0.85000
O990        O  0.76501355  0.31589776  0.34711385    -0.79000
O991        O  0.77453938  0.28778983  0.31305803    -0.89300
C992        C  0.72143607  0.37606671  0.35531144     0.84600
O993        O  0.73290476  0.29519448  0.27520217    -0.67500
O994        O  0.63789753  0.34318898  0.32826946    -0.86800
C995        C  0.73796353  0.32026672  0.27627737     0.85400
C996        C  0.78086885  0.29970686  0.33501217     1.07000
H997        H  0.69184000  0.33940189  0.30683322     0.38800
O998        O  0.69252308  0.33170418  0.32483171    -1.09500
O999        O  0.67654030  0.28960264  0.35975559    -0.66100
Ni1000     Ni  0.68424650  0.29468978  0.32236128     1.26300
O1001       O  0.74120711  0.33230612  0.29882253    -0.66300
O1002       O  0.64720627  0.30127214  0.31342262    -0.78600
C1003       C  0.68872139  0.24317915  0.30300427     0.84800
O1004       O  0.67773253  0.25817077  0.32018484    -0.65800
Ni1005     Ni  0.66993694  0.35423383  0.34736264     1.27400
Ni1006     Ni  0.72930216  0.32463055  0.33549837     1.26100
H1007       H  0.72361000  0.27823373  0.34732279     0.39400
O1008       O  0.28864708  0.71178705  0.34987812    -0.80600
O1009       O  0.39228423  0.65348902  0.30402693    -0.65300
O1010       O  0.32618990  0.67050017  0.33867906    -1.11900
C1011       C  0.37858391  0.69865990  0.41142563     1.06300
O1012       O  0.42110068  0.65039054  0.33950938    -0.78500
O1013       O  0.38343621  0.63352367  0.37272917    -0.66100
Ni1014     Ni  0.30027216  0.69231984  0.31893309     1.34900
C1015       C  0.35891456  0.63269805  0.37993366     0.85000
O1016       O  0.34096693  0.64392748  0.29239951    -0.79000
O1017       O  0.30794729  0.67491046  0.28547436    -0.89300
C1018       C  0.41481501  0.64689875  0.31482122     0.84600
O1019       O  0.32564546  0.71991494  0.31310139    -0.67500
O1020       O  0.39204187  0.67744576  0.40550272    -0.86800
C1021       C  0.34894999  0.71727434  0.30292060     0.85400
C1022       C  0.32150452  0.65404607  0.27851020     1.07000
H1023       H  0.38307609  0.69972277  0.34341510     0.38800
O1024       O  0.37627821  0.68258458  0.34970424    -1.09500
O1025       O  0.34557734  0.65380732  0.38717940    -0.66100
Ni1026     Ni  0.34306006  0.68838552  0.36811486     1.26300
O1027       O  0.35998429  0.69439132  0.29880381    -0.66300
O1028       O  0.35994682  0.70779150  0.39611816    -0.78600
C1029       C  0.29061709  0.70718888  0.37500193     0.84800
O1030       O  0.30980869  0.69372984  0.38580699    -0.65800
Ni1031     Ni  0.40450136  0.66483032  0.37093547     1.27400
Ni1032     Ni  0.35924373  0.66247124  0.32081374     1.26100
H1033       H  0.31764013  0.65395074  0.34435986     0.39400
O1034       O  0.39858854  0.36655096  0.66849700    -0.80600
O1035       O  0.28987341  0.30151255  0.65182576    -0.65300
O1036       O  0.34452226  0.35063708  0.67121044    -1.11900
C1037       C  0.37434479  0.27397343  0.72072738     1.06300
O1038       O  0.28327738  0.29592943  0.69603991    -0.78500
O1039       O  0.31860677  0.30154251  0.73894027    -0.66100
Ni1040     Ni  0.36785830  0.36360398  0.64402312     1.34900
C1041       C  0.32488515  0.32617007  0.74237342     0.85000
O1042       O  0.30019806  0.35378179  0.63790637    -0.79000
O1043       O  0.33871116  0.36223864  0.61788794    -0.89300
C1044       C  0.27436139  0.29816434  0.67180826     0.84600
O1045       O  0.37884390  0.32764537  0.63482880    -0.67500
O1046       O  0.35126606  0.26328264  0.71623622    -0.86800
C1047       C  0.36307391  0.31260150  0.62128252     0.85400
C1048       C  0.31445093  0.36911966  0.62320240     1.07000
H1049       H  0.34706837  0.28827468  0.67029076     0.38800
O1050       O  0.33684516  0.30074027  0.68142146    -1.09500
O1051       O  0.33710583  0.33925130  0.72413447    -0.66100
Ni1052     Ni  0.36095236  0.32594421  0.69596607     1.26300
O1053       O  0.33771474  0.31139871  0.62719075    -0.66300
O1054       O  0.37868876  0.29943988  0.71941274    -0.78600
C1055       C  0.40150383  0.36361798  0.69404841     0.84800
O1056       O  0.38422795  0.35220366  0.70856876    -0.65800
Ni1057     Ni  0.31743717  0.27978365  0.70645178     1.27400
Ni1058     Ni  0.31795808  0.32588654  0.65901355     1.26100
H1059       H  0.33596467  0.36570176  0.68040284     0.39400
N1060       N  0.52776448  0.61050912  0.27747112    -0.01300
C1061       C  0.50532600  0.59812079  0.26723161    -0.12100
C1062       C  0.51135746  0.57557224  0.25070901    -0.07600
C1063       C  0.54039294  0.57511424  0.25163152    -0.08300
C1064       C  0.54940212  0.59678164  0.26801289    -0.12200
N1065       N  0.66014147  0.70320211  0.50611572    -0.01300
C1066       C  0.64914481  0.71619453  0.52769144    -0.12100
C1067       C  0.62546485  0.73106224  0.51932831    -0.07600
C1068       C  0.62205705  0.72680699  0.49092744    -0.08300
C1069       C  0.64355945  0.70923552  0.48460025    -0.12200
N1070       N  0.76411215  0.49773537  0.34760047    -0.01300
C1071       C  0.77809966  0.51846178  0.35758641    -0.12100
C1072       C  0.79853234  0.50905384  0.37496340    -0.07600
C1073       C  0.79622841  0.48092571  0.37666664    -0.08300
C1074       C  0.77473201  0.47512018  0.35912732    -0.12200
O1075       O  0.70588778  0.69413342  0.37802064    -0.80600
O1076       O  0.72774047  0.70727378  0.26203791    -0.65300
O1077       O  0.69042000  0.70249042  0.32772338    -1.11900
C1078       C  0.72191842  0.61184325  0.31868340     1.06300
O1079       O  0.69823764  0.67645143  0.25062866    -0.78500
O1080       O  0.67441477  0.63506766  0.27643788    -0.66100
Ni1081     Ni  0.69946349  0.72570513  0.35681649     1.34900
C1082       C  0.65666812  0.64094658  0.29384049     0.85000
O1083       O  0.70383394  0.74409591  0.29275667    -0.79000
O1084       O  0.69372834  0.75779721  0.33502685    -0.89300
C1085       C  0.71665009  0.69279616  0.24402015     0.84600
O1086       O  0.73772808  0.72807443  0.35386155    -0.67500
O1087       O  0.72421753  0.61641398  0.29322873    -0.86800
C1088       C  0.75450602  0.72062326  0.33615147     0.85400
C1089       C  0.69642947  0.76200078  0.30967033     1.07000
H1090       H  0.73600996  0.66572664  0.30548886     0.38800
O1091       O  0.71729039  0.66852542  0.30067242    -1.09500
O1092       O  0.66246627  0.65479770  0.31491342    -0.66100
Ni1093     Ni  0.69728222  0.66395862  0.33220949     1.26300
O1094       O  0.74664732  0.71214010  0.31297389    -0.66300
O1095       O  0.70758816  0.62639035  0.33483114    -0.78600
C1096       C  0.68568823  0.67959571  0.38300815     0.84800
O1097       O  0.67831952  0.66225461  0.36572883    -0.65800
Ni1098     Ni  0.71096772  0.64588500  0.27121663     1.27400
Ni1099     Ni  0.71082076  0.70634420  0.29601798     1.26100
H1100       H  0.67142764  0.70550400  0.32319330     0.39400
N1101       N  0.67189757  0.25836328  0.50264502    -0.01300
C1102       C  0.65998312  0.25086109  0.52598830    -0.12100
C1103       C  0.63533147  0.23825027  0.52164132    -0.07600
C1104       C  0.63206943  0.23873869  0.49359251    -0.08300
C1105       C  0.65456417  0.25157531  0.48258304    -0.12200
N1106       N  0.75896453  0.48896914  0.62273610    -0.01300
C1107       C  0.76917910  0.50979758  0.60762318    -0.12100
C1108       C  0.78280515  0.50073190  0.58396624    -0.07600
C1109       C  0.78067822  0.47142158  0.58495688    -0.08300
C1110       C  0.76571058  0.46594036  0.60891554    -0.12200
N1111       N  0.52721140  0.35712591  0.72071300    -0.01300
C1112       C  0.50782116  0.36818754  0.73622212    -0.12100
C1113       C  0.51877331  0.38590785  0.75459358    -0.07600
C1114       C  0.54620457  0.38606866  0.74968604    -0.08300
C1115       C  0.55063665  0.36838624  0.72847758    -0.12200
O1116       O  0.65764603  0.30375273  0.70042612    -0.80600
O1117       O  0.77394525  0.28211752  0.70632619    -0.65300
O1118       O  0.70762899  0.31993351  0.70782192    -1.11900
C1119       C  0.71034892  0.29997923  0.61510550     1.06300
O1120       O  0.78525462  0.31168710  0.67515976    -0.78500
O1121       O  0.75493490  0.34062663  0.63976250    -0.66100
Ni1122     Ni  0.68016966  0.30852042  0.73116798     1.34900
C1123       C  0.73878657  0.35841578  0.64888004     0.85000
O1124       O  0.74551707  0.30465403  0.74579951    -0.79000
O1125       O  0.70359611  0.31419185  0.76160465    -0.89300
C1126       C  0.79170483  0.29313856  0.69193289     0.84600
O1127       O  0.68568619  0.27025430  0.73332247    -0.67500
O1128       O  0.73572866  0.29458131  0.61811994    -0.86800
C1129       C  0.70447925  0.25442591  0.72559980     0.85400
C1130       C  0.72947235  0.31284681  0.76422246     1.07000
H1131       H  0.72731745  0.27740640  0.66739718     0.38800
O1132       O  0.73265397  0.29588018  0.67075887    -1.09500
O1133       O  0.71813067  0.35231804  0.66310108    -0.66100
Ni1134     Ni  0.70070587  0.31739274  0.66979970     1.26300
O1135       O  0.72569550  0.26342622  0.71445144    -0.66300
O1136       O  0.69546399  0.31258788  0.63204264    -0.78600
C1137       C  0.65055550  0.32578090  0.68907689     0.84800
O1138       O  0.66663085  0.33651012  0.67235251    -0.65800
Ni1139     Ni  0.76055119  0.30308275  0.64645904     1.27400
Ni1140     Ni  0.73998921  0.29955865  0.70825650     1.26100
H1141       H  0.71179100  0.33849872  0.71221212     0.39400
N1142       N  0.30626393  0.50178733  0.62848059    -0.01300
C1143       C  0.29896007  0.52596340  0.61711409    -0.12100
C1144       C  0.28375337  0.52213890  0.59261389    -0.07600
C1145       C  0.28176917  0.49336277  0.58936310    -0.08300
C1146       C  0.29569986  0.48257986  0.61193884    -0.12200
N1147       N  0.52811811  0.61207930  0.73877966    -0.01300
C1148       C  0.55090081  0.59733052  0.74578951    -0.12100
C1149       C  0.54523672  0.57250833  0.75900127    -0.07600
C1150       C  0.51511081  0.57360633  0.75996899    -0.08300
C1151       C  0.50643233  0.59827144  0.74747891    -0.12200
N1152       N  0.38210677  0.74916001  0.53255309    -0.01300
C1153       C  0.39833572  0.75374279  0.51128136    -0.12100
C1154       C  0.42286476  0.76489657  0.51953866    -0.07600
C1155       C  0.42190705  0.76621337  0.54753156    -0.08300
C1156       C  0.39621033  0.75753102  0.55437660    -0.12200
O1157       O  0.39216424  0.70211975  0.67197715    -0.80600
O1158       O  0.33032407  0.64252661  0.75291049    -0.65300
O1159       O  0.34625107  0.68071559  0.68870914    -1.11900
C1160       C  0.34059977  0.75939791  0.74581541     1.06300
O1161       O  0.29721969  0.67250815  0.75326626    -0.78500
O1162       O  0.28533757  0.71893861  0.72885515    -0.66100
Ni1163     Ni  0.37397973  0.66910365  0.66562981     1.34900
C1164       C  0.28823030  0.72475182  0.70407736     0.85000
O1165       O  0.33604725  0.62620251  0.69917606    -0.79000
O1166       O  0.35501789  0.63628478  0.65906171    -0.89300
C1167       C  0.31043257  0.65356121  0.76500742     0.84600
O1168       O  0.39857924  0.65052913  0.68961627    -0.67500
O1169       O  0.32474647  0.74516116  0.76053563    -0.86800
C1170       C  0.39898949  0.64528816  0.71472030     0.85400
C1171       C  0.34082150  0.62087350  0.67402325     1.07000
H1172       H  0.35721040  0.69619979  0.74893531     0.38800
O1173       O  0.34144524  0.69579855  0.73710785    -1.09500
O1174       O  0.31163453  0.72428988  0.69314994    -0.66100
Ni1175     Ni  0.34896881  0.71582907  0.70567457     1.26300
O1176       O  0.37833769  0.65108387  0.72947459    -0.66300
O1177       O  0.35117867  0.75024596  0.72407305    -0.78600
C1178       C  0.38025204  0.72280713  0.66196510     0.84800
O1179       O  0.35994736  0.73301975  0.67377770    -0.65800
Ni1180     Ni  0.31077090  0.70829145  0.75698226     1.27400
Ni1181     Ni  0.33972236  0.66009783  0.71980323     1.26100
H1182       H  0.32971776  0.68060902  0.67793853     0.39400
O1183       O  0.65950086  0.62562658  0.68373009    -0.80600
O1184       O  0.76649690  0.69120752  0.65667435    -0.65300
O1185       O  0.71290307  0.64380652  0.68523565    -1.11900
C1186       C  0.68464152  0.72561527  0.72752531     1.06300
O1187       O  0.77473508  0.70452737  0.69851093    -0.78500
O1188       O  0.74330645  0.70070819  0.74321015    -0.66100
Ni1189     Ni  0.68993178  0.62618488  0.65973800     1.34900
C1190       C  0.73559380  0.67762666  0.75118101     0.85000
O1191       O  0.75689320  0.63642440  0.65188749    -0.79000
O1192       O  0.71818812  0.62357866  0.63339964    -0.89300
C1193       C  0.78092319  0.70416697  0.67367534     0.84600
O1194       O  0.67726076  0.65952261  0.64399832    -0.67500
O1195       O  0.70707973  0.73579639  0.72024616    -0.86800
C1196       C  0.69227628  0.67540491  0.63072005     0.85400
C1197       C  0.74338750  0.61955741  0.63787938     1.07000
H1198       H  0.70991241  0.70544023  0.67573655     0.38800
O1199       O  0.72046507  0.69460114  0.68849220    -1.09500
O1200       O  0.71987802  0.66281121  0.73697566    -0.66100
Ni1201     Ni  0.69587078  0.67154800  0.70629555     1.26300
O1202       O  0.71781933  0.67693180  0.63637643    -0.66300
O1203       O  0.67892739  0.70053115  0.72605872    -0.78600
C1204       C  0.65512293  0.63179703  0.70829730     0.84800
O1205       O  0.67044666  0.64743094  0.72174594    -0.65800
Ni1206     Ni  0.74048762  0.71962475  0.70934141     1.27400
Ni1207     Ni  0.73927068  0.66684542  0.66930093     1.26100
H1208       H  0.72183185  0.63044707  0.69675831     0.39400
O1209       O  0.05523593  0.22652802  0.54890249    -0.74100
O1210       O  0.00710742  0.20402974  0.49228064    -0.74200
O1211       O  0.05684334  0.22591513  0.49469872    -0.74200
O1212       O  0.00596490  0.20415872  0.54726029    -0.74300
O1213       O  0.98681173  0.24560334  0.54562249    -0.74200
O1214       O  0.03853811  0.26759572  0.49376597    -0.74200
O1215       O  0.98913132  0.24599787  0.49159252    -0.74100
O1216       O  0.03567721  0.26776553  0.54781036    -0.74200
Ni1217     Ni  0.03189903  0.21353646  0.52077885     1.25400
Ni1218     Ni  0.01177941  0.25815766  0.51959646     1.25400
C1219       C  0.05310946  0.25090815  0.55751789     0.88100
C1220       C  0.99071632  0.22196968  0.48237833     0.88000
C1221       C  0.05634019  0.25031159  0.48583355     0.88000
C1222       C  0.98888473  0.22177262  0.55578300     0.88200
O1223       O  0.99069176  0.73998646  0.54068030    -0.74100
O1224       O  0.04382453  0.76985418  0.49569206    -0.74200
O1225       O  0.99260547  0.75389124  0.48852050    -0.74200
O1226       O  0.04252796  0.75624872  0.54783108    -0.74300
O1227       O  0.05735501  0.71440485  0.53813562    -0.74200
O1228       O  0.00596737  0.71168696  0.47918571    -0.74200
O1229       O  0.05724977  0.72752509  0.48580548    -0.74100
O1230       O  0.00480114  0.69763758  0.53182658    -0.74200
Ni1231     Ni  0.01681553  0.75642236  0.51868957     1.25400
Ni1232     Ni  0.03189425  0.71122077  0.50850673     1.25400
C1233       C  0.98826106  0.71429585  0.54275104     0.88100
C1234       C  0.05916519  0.75319499  0.48327285     0.88000
C1235       C  0.99108585  0.73263210  0.47385647     0.88000
C1236       C  0.05920430  0.73642594  0.55168683     0.88200
O1237       O  0.80057323  0.52641724  0.03628766    -0.74100
O1238       O  0.79975536  0.47287386  0.98252840    -0.74200
O1239       O  0.80507680  0.52684473  0.98252706    -0.74200
O1240       O  0.79520283  0.47292156  0.03680695    -0.74300
O1241       O  0.75007129  0.47827389  0.03297380    -0.74200
O1242       O  0.76008936  0.53137734  0.97776743    -0.74200
O1243       O  0.75449918  0.47721867  0.97871991    -0.74100
O1244       O  0.75546948  0.53200012  0.03150397    -0.74200
Ni1245     Ni  0.80178555  0.49947650  0.00960969     1.25400
Ni1246     Ni  0.75336172  0.50482595  0.00499455     1.25400
C1247       C  0.77815636  0.53785970  0.04257579     0.88100
C1248       C  0.77708732  0.46652785  0.97172536     0.88000
C1249       C  0.78420903  0.53843574  0.97160013     0.88000
C1250       C  0.77111644  0.46758396  0.04444140     0.88200
O1251       O  0.50182456  0.98365054  0.78310661    -0.74100
O1252       O  0.56655630  0.02464894  0.78050318    -0.74200
O1253       O  0.51344204  0.03612847  0.77684410    -0.74200
O1254       O  0.55490368  0.97220297  0.78695329    -0.74300
O1255       O  0.55686737  0.96729553  0.74213405    -0.74200
O1256       O  0.51407693  0.03008814  0.73195235    -0.74200
O1257       O  0.56765330  0.02004921  0.73573535    -0.74100
O1258       O  0.50351253  0.97744889  0.73835867    -0.74200
Ni1259     Ni  0.53416190  0.00442039  0.78348294     1.25400
Ni1260     Ni  0.53564123  0.99855639  0.73539383     1.25400
C1261       C  0.49236112  0.97348006  0.76125087     0.88100
C1262       C  0.57774166  0.02936056  0.75774254     0.88000
C1263       C  0.50685154  0.04324614  0.75280844     0.88000
C1264       C  0.56206370  0.95890453  0.76613365     0.88200
O1265       O  0.29598161  0.53766983  0.99327381    -0.74100
O1266       O  0.29863000  0.47637846  0.03974189    -0.74200
O1267       O  0.30091038  0.48390325  0.98525230    -0.74200
O1268       O  0.29335534  0.53069338  0.04665348    -0.74300
O1269       O  0.24822117  0.52845156  0.04314531    -0.74200
O1270       O  0.25590752  0.48028584  0.98303081    -0.74200
O1271       O  0.25329916  0.47396019  0.03771094    -0.74100
O1272       O  0.25087096  0.53409473  0.98966436    -0.74200
Ni1273     Ni  0.29886299  0.50707509  0.01638872     1.25400
Ni1274     Ni  0.25046895  0.50386582  0.01331029     1.25400
C1275       C  0.27293031  0.54613947  0.98425338     0.88100
C1276       C  0.27637193  0.46570984  0.04696253     0.88000
C1277       C  0.27947683  0.47521387  0.97327968     0.88000
C1278       C  0.26955668  0.53835443  0.05412823     0.88200
O1279       O  0.52268550  0.02653077  0.28247789    -0.74100
O1280       O  0.49218020  0.95783971  0.28721489    -0.74200
O1281       O  0.54241920  0.97562176  0.27999626    -0.74200
O1282       O  0.47200392  0.00862430  0.28865854    -0.74300
O1283       O  0.46616586  0.00869701  0.24398390    -0.74200
O1284       O  0.53610343  0.97535490  0.23536826    -0.74200
O1285       O  0.48569488  0.95725588  0.24237190    -0.74100
O1286       O  0.51712979  0.02684849  0.23748297    -0.74200
Ni1287     Ni  0.50749055  0.99222669  0.28617019     1.25400
Ni1288     Ni  0.50094541  0.99209437  0.23814611     1.25400
C1289       C  0.52591121  0.03743316  0.25938600     0.88100
C1290       C  0.48426092  0.94613851  0.26571546     0.88000
C1291       C  0.55069495  0.96944800  0.25622821     0.88000
C1292       C  0.45745772  0.01435779  0.26764908     0.88200
C1293       C  0.39308508  0.72191238  0.58766301    -0.26000
C1294       C  0.38970375  0.74929344  0.58159674    -0.14100
C1295       C  0.38343203  0.76825792  0.60169243     0.36500
C1296       C  0.38149471  0.75915746  0.62834274    -0.25500
C1297       C  0.38592068  0.73166550  0.63467601    -0.14700
C1298       C  0.39168778  0.71283065  0.61392806     0.37600
N1299       N  0.39483701  0.68426213  0.61827455    -0.89000
H1300       H  0.39756592  0.70745357  0.57181953     0.18700
H1301       H  0.37624771  0.77340418  0.64415367     0.18700
N1302       N  0.37804170  0.79618898  0.59480767    -0.88000
H1303       H  0.37643997  0.67672834  0.62504524     0.36100
H1304       H  0.41064166  0.68042397  0.63214581     0.41200
H1305       H  0.39597310  0.80446939  0.58763288     0.40800
H1306       H  0.37284223  0.80721286  0.61205494     0.35700
C1307       C  0.46039098  0.61989768  0.75981682    -0.26000
C1308       C  0.47725759  0.60718501  0.74046928    -0.14100
C1309       C  0.46712630  0.60582765  0.71354808     0.36500
C1310       C  0.44193691  0.61814205  0.70652958    -0.25500
C1311       C  0.42504334  0.63138105  0.72546856    -0.14700
C1312       C  0.43431531  0.63142519  0.75278687     0.37600
N1313       N  0.41782527  0.64386049  0.77317426    -0.89000
H1314       H  0.46783067  0.62133283  0.78046392     0.18700
H1315       H  0.43546098  0.61706099  0.68553534     0.18700
N1316       N  0.48195958  0.59244761  0.69242084    -0.88000
H1317       H  0.42780461  0.64297617  0.79196736     0.36100
H1318       H  0.40039573  0.63218434  0.77507384     0.41200
H1319       H  0.49925696  0.58238487  0.69996978     0.40800
H1320       H  0.46955366  0.57735124  0.68446287     0.35700
C1321       C  0.61636304  0.63685117  0.73998966    -0.26000
C1322       C  0.63026472  0.62122146  0.72075601    -0.14100
C1323       C  0.61887533  0.59672671  0.71180596     0.36500
C1324       C  0.59295239  0.58964069  0.72021541    -0.25500
C1325       C  0.57859225  0.60571073  0.73860178    -0.14700
C1326       C  0.59076754  0.62922186  0.74929873     0.37600
N1327       N  0.57815872  0.64550426  0.76982026    -0.89000
H1328       H  0.62511419  0.65547197  0.74739042     0.18700
H1329       H  0.58380942  0.57159201  0.71195979     0.18700
N1330       N  0.63364387  0.57884217  0.69433397    -0.88000
H1331       H  0.57338988  0.66443974  0.76127527     0.36100
H1332       H  0.56004261  0.63717000  0.77645107     0.41200
H1333       H  0.62201077  0.57603403  0.67674746     0.40800
H1334       H  0.63584416  0.56006655  0.70410892     0.35700
C1335       C  0.29744046  0.55883139  0.65565426    -0.26000
C1336       C  0.30724342  0.55220938  0.62983787    -0.14100
C1337       C  0.32756563  0.56855271  0.61867184     0.36500
C1338       C  0.33836857  0.58992712  0.63382652    -0.25500
C1339       C  0.32927084  0.59627396  0.66017361    -0.14700
C1340       C  0.30807688  0.58039460  0.67084498     0.37600
N1341       N  0.29668615  0.58558959  0.69685368    -0.89000
H1342       H  0.28145893  0.54683677  0.66431216     0.18700
H1343       H  0.35411501  0.60179107  0.62455309     0.18700
N1344       N  0.33782263  0.56400520  0.59203550    -0.88000
H1345       H  0.28889233  0.60542317  0.69706457     0.36100
H1346       H  0.31205521  0.58347601  0.71154086     0.41200
H1347       H  0.34436457  0.54387033  0.59032423     0.40800
H1348       H  0.32207262  0.56746239  0.57807517     0.35700
C1349       C  0.59535208  0.34810995  0.73592512    -0.26000
C1350       C  0.57696263  0.36009713  0.71780208    -0.14100
C1351       C  0.58398908  0.36395028  0.69033577     0.36500
C1352       C  0.60879103  0.35347753  0.68128782    -0.25500
C1353       C  0.62661553  0.34012661  0.69928783    -0.14700
C1354       C  0.62051701  0.33887349  0.72718946     0.37600
N1355       N  0.64009044  0.32879401  0.74669703    -0.89000
H1356       H  0.59006525  0.34612821  0.75707216     0.18700
H1357       H  0.61392605  0.35534573  0.66010731     0.18700
N1358       N  0.56734717  0.37945504  0.67160528    -0.88000
H1359       H  0.63186437  0.32826312  0.76609840     0.36100
H1360       H  0.65575636  0.34286713  0.74748880     0.41200
H1361       H  0.54990320  0.38729680  0.68069727     0.40800
H1362       H  0.56121424  0.36655546  0.65604840     0.35700
C1363       C  0.77791991  0.42238571  0.63184458    -0.26000
C1364       C  0.75805013  0.43837435  0.61864687    -0.14100
C1365       C  0.73101598  0.42867239  0.61698023     0.36500
C1366       C  0.72473271  0.40338026  0.62865735    -0.25500
C1367       C  0.74483026  0.38708092  0.64137183    -0.14700
C1368       C  0.77175644  0.39705755  0.64300539     0.37600
N1369       N  0.79326882  0.38220299  0.65648902    -0.89000
H1370       H  0.79850038  0.42977055  0.63366518     0.18700
H1371       H  0.70422869  0.39585339  0.62662082     0.18700
N1372       N  0.70957848  0.44356031  0.60320223    -0.88000
H1373       H  0.79735110  0.36435266  0.64592826     0.36100
H1374       H  0.78699583  0.37733752  0.67602794     0.41200
H1375       H  0.71696785  0.46084609  0.59376216     0.40800
H1376       H  0.70222882  0.43132724  0.58760498     0.35700
C1377       C  0.78037571  0.55142927  0.63387019    -0.26000
C1378       C  0.76453757  0.53891500  0.61377539    -0.14100
C1379       C  0.74515934  0.55467311  0.59900154     0.36500
C1380       C  0.74154722  0.58202801  0.60521623    -0.25500
C1381       C  0.75549974  0.59416032  0.62685641    -0.14700
C1382       C  0.77591103  0.57891629  0.64079611     0.37600
N1383       N  0.79118770  0.59086665  0.66253324    -0.89000
H1384       H  0.79566009  0.53947006  0.64473032     0.18700
H1385       H  0.72592680  0.59341609  0.59418926     0.18700
N1386       N  0.72722910  0.54337985  0.57896691    -0.88000
H1387       H  0.80591201  0.57715932  0.66999646     0.36100
H1388       H  0.77780608  0.59454639  0.67841332     0.41200
H1389       H  0.73034342  0.52258229  0.57657810     0.40800
H1390       H  0.73110168  0.55280621  0.56046545     0.35700
C1391       C  0.69951313  0.25982240  0.58962042    -0.26000
C1392       C  0.69670991  0.28797202  0.59235988    -0.14100
C1393       C  0.67916931  0.30304725  0.57521620     0.36500
C1394       C  0.66510798  0.28958973  0.55504813    -0.25500
C1395       C  0.66881698  0.26161777  0.55162029    -0.14700
C1396       C  0.68564812  0.24631261  0.56930829     0.37600
N1397       N  0.69011188  0.21758429  0.56656477    -0.89000
H1398       H  0.71259660  0.24826078  0.60339938     0.18700
H1399       H  0.65252102  0.30120526  0.54086799     0.18700
N1400       N  0.67650839  0.33196057  0.57688345    -0.88000
H1401       H  0.68243324  0.20823007  0.58382152     0.36100
H1402       H  0.67945476  0.20983431  0.55005048     0.41200
H1403       H  0.69584329  0.34027960  0.57520702     0.40800
H1404       H  0.66863561  0.33708262  0.59573995     0.35700
C1405       C  0.77936256  0.56197342  0.33358602    -0.26000
C1406       C  0.76783574  0.54635835  0.35396042    -0.14100
C1407       C  0.74204015  0.55380306  0.36437414     0.36500
C1408       C  0.72767212  0.57552356  0.35276613    -0.25500
C1409       C  0.73797243  0.58942510  0.33056467    -0.14700
C1410       C  0.76452848  0.58335732  0.32158951     0.37600
N1411       N  0.77648806  0.59881681  0.30033842    -0.89000
H1412       H  0.79896845  0.55617211  0.32545817     0.18700
H1413       H  0.70776532  0.58083160  0.36049390     0.18700
N1414       N  0.72954622  0.53952123  0.38629151    -0.88000
H1415       H  0.78158034  0.58555217  0.28469030     0.36100
H1416       H  0.79444483  0.60718756  0.30785906     0.41200
H1417       H  0.74105743  0.52264893  0.39257675     0.40800
H1418       H  0.71082973  0.53243720  0.37940944     0.35700
C1419       C  0.65502575  0.72058599  0.43809125    -0.26000
C1420       C  0.64929079  0.70051426  0.45698029    -0.14100
C1421       C  0.65172560  0.67295069  0.45009388     0.36500
C1422       C  0.66202543  0.66585874  0.42473883    -0.25500
C1423       C  0.66955958  0.68619685  0.40661526    -0.14700
C1424       C  0.66466180  0.71369002  0.41283108     0.37600
N1425       N  0.67005668  0.73478996  0.39373324    -0.89000
H1426       H  0.65348561  0.74181024  0.44344785     0.18700
H1427       H  0.66551060  0.64470589  0.41985728     0.18700
N1428       N  0.64455388  0.65234175  0.46907094    -0.88000
H1429       H  0.68424707  0.74783343  0.40240209     0.36100
H1430       H  0.65201339  0.74583096  0.39025238     0.41200
H1431       H  0.66170267  0.63998921  0.47265571     0.40800
H1432       H  0.62955925  0.64045429  0.46008751     0.35700
C1433       C  0.64215167  0.69920616  0.57477951    -0.26000
C1434       C  0.65928289  0.71197359  0.55635045    -0.14100
C1435       C  0.68670344  0.71628919  0.56442716     0.36500
C1436       C  0.69672881  0.70525132  0.58911658    -0.25500
C1437       C  0.67997940  0.69067544  0.60677450    -0.14700
C1438       C  0.65185716  0.68911111  0.59993329     0.37600
N1439       N  0.63317948  0.67654043  0.61809157    -0.89000
H1440       H  0.62127121  0.69560786  0.56890689     0.18700
H1441       H  0.71805835  0.70761240  0.59415186     0.18700
N1442       N  0.70496087  0.73174597  0.54819016    -0.88000
H1443       H  0.61354347  0.67641990  0.60973573     0.36100
H1444       H  0.63212351  0.68862161  0.63538696     0.41200
H1445       H  0.69511911  0.73998453  0.53114097     0.40800
H1446       H  0.72033294  0.71863135  0.54148559     0.35700
C1447       C  0.58724848  0.60669248  0.30138133    -0.26000
C1448       C  0.57805137  0.60548087  0.27426046    -0.14100
C1449       C  0.59411033  0.61749829  0.25428544     0.36500
C1450       C  0.61910421  0.62939473  0.26133174    -0.25500
C1451       C  0.62847128  0.63062584  0.28838570    -0.14700
C1452       C  0.61194361  0.61918820  0.30862805     0.37600
N1453       N  0.61988343  0.61945096  0.33659550    -0.89000
H1454       H  0.57480946  0.59830729  0.31719411     0.18700
H1455       H  0.63118739  0.63809673  0.24539632     0.18700
N1456       N  0.58459879  0.61873520  0.22684806    -0.88000
H1457       H  0.62155903  0.63960856  0.34273313     0.36100
H1458       H  0.63892256  0.60988213  0.33863595     0.41200
H1459       H  0.59937311  0.60955568  0.21476260     0.40800
H1460       H  0.58292035  0.63914063  0.22117106     0.35700
C1461       C  0.32409390  0.41269216  0.60157717    -0.26000
C1462       C  0.30554764  0.39688392  0.61593261    -0.14100
C1463       C  0.28273370  0.40956874  0.62784472     0.36500
C1464       C  0.28060169  0.43796941  0.62734307    -0.25500
C1465       C  0.30061369  0.45352968  0.61505758    -0.14700
C1466       C  0.32225605  0.44078846  0.60141344     0.37600
N1467       N  0.34258108  0.45552910  0.58697424    -0.89000
H1468       H  0.34129258  0.40329455  0.59157817     0.18700
H1469       H  0.26322096  0.44806090  0.63634954     0.18700
N1470       N  0.26230306  0.39380329  0.64087782    -0.88000
H1471       H  0.36133012  0.45158765  0.59651697     0.36100
H1472       H  0.33933444  0.47644822  0.58776070     0.41200
H1473       H  0.25286254  0.38213162  0.62597122     0.40800
H1474       H  0.24717437  0.40642166  0.64889847     0.35700
C1475       C  0.43321616  0.35698835  0.73211957    -0.26000
C1476       C  0.42709510  0.37021738  0.70737938    -0.14100
C1477       C  0.44703223  0.38539525  0.69437537     0.36500
C1478       C  0.47335570  0.38479176  0.70484564    -0.25500
C1479       C  0.47972563  0.36929053  0.72789271    -0.14700
C1480       C  0.45950626  0.35600799  0.74237643     0.37600
N1481       N  0.46502957  0.34007672  0.76633620    -0.89000
H1482       H  0.41802690  0.34545004  0.74267903     0.18700
H1483       H  0.48910476  0.39583442  0.69454369     0.18700
N1484       N  0.44084789  0.40085493  0.67041344    -0.88000
H1485       H  0.45465964  0.34920348  0.78231996     0.36100
H1486       H  0.48563825  0.33979951  0.77158429     0.41200
H1487       H  0.45343630  0.39384057  0.65496728     0.40800
H1488       H  0.44564129  0.42107323  0.67420989     0.35700
C1489       C  0.36581478  0.73335954  0.44528411    -0.26000
C1490       C  0.38406483  0.71283366  0.43699193    -0.14100
C1491       C  0.40759193  0.70711591  0.45272226     0.36500
C1492       C  0.41200352  0.72139996  0.47653344    -0.25500
C1493       C  0.39373747  0.74169539  0.48470969    -0.14700
C1494       C  0.37057276  0.74815713  0.46878858     0.37600
N1495       N  0.35163234  0.76948458  0.47568964    -0.89000
H1496       H  0.34773565  0.73820503  0.43334928     0.18700
H1497       H  0.42956526  0.71615036  0.48906254     0.18700
N1498       N  0.42720786  0.68705828  0.44463484    -0.88000
H1499       H  0.35171403  0.78377662  0.46000239     0.36100
H1500       H  0.35777319  0.77979541  0.49304726     0.41200
H1501       H  0.42908885  0.67255941  0.46007262     0.40800
H1502       H  0.44597266  0.69649977  0.44265780     0.35700
C1503       C  0.44141269  0.60622733  0.30606572    -0.26000
C1504       C  0.43441048  0.63279462  0.29851815    -0.14100
C1505       C  0.44767766  0.64595642  0.27743756     0.36500
C1506       C  0.46986352  0.63289424  0.26566531    -0.25500
C1507       C  0.47830788  0.60711162  0.27472133    -0.14700
C1508       C  0.46338866  0.59302059  0.29436655     0.37600
N1509       N  0.47054076  0.56616935  0.30386685    -0.89000
H1510       H  0.43050388  0.59619417  0.32210937     0.18700
H1511       H  0.48160410  0.64337721  0.25055247     0.18700
N1512       N  0.43974653  0.67303995  0.26952996    -0.88000
H1513       H  0.47522303  0.56736646  0.32451051     0.36100
H1514       H  0.48783560  0.55838132  0.29457058     0.41200
H1515       H  0.42024636  0.67207413  0.26097711     0.40800
H1516       H  0.45242012  0.68017109  0.25432992     0.35700
C1517       C  0.68203031  0.27002327  0.41364240    -0.26000
C1518       C  0.66342052  0.29042208  0.40522692    -0.14100
C1519       C  0.64078983  0.29639969  0.42165160     0.36500
C1520       C  0.63748978  0.28222705  0.44596360    -0.25500
C1521       C  0.65651693  0.26247680  0.45468294    -0.14700
C1522       C  0.67897750  0.25623391  0.43835426     0.37600
N1523       N  0.69880410  0.23628010  0.44717972    -0.89000
H1524       H  0.69937846  0.26522965  0.40112930     0.18700
H1525       H  0.62053050  0.28754734  0.45871502     0.18700
N1526       N  0.62068543  0.31645294  0.41410488    -0.88000
H1527       H  0.71428899  0.23426976  0.43299517     0.36100
H1528       H  0.68910281  0.21760205  0.44809197     0.41200
H1529       H  0.61292224  0.31169435  0.39494665     0.40800
H1530       H  0.62991651  0.33535691  0.41321627     0.35700
C1531       C  0.74006182  0.41453737  0.33273986    -0.26000
C1532       C  0.72988976  0.40370158  0.35678892    -0.14100
C1533       C  0.73314519  0.41700252  0.38154680     0.36500
C1534       C  0.74879313  0.44026388  0.38207705    -0.25500
C1535       C  0.76054653  0.44986185  0.35823485    -0.14700
C1536       C  0.75614806  0.43720213  0.33333818     0.37600
N1537       N  0.76856088  0.44704924  0.30905807    -0.89000
H1538       H  0.73698425  0.40410647  0.31368667     0.18700
H1539       H  0.75169008  0.45108975  0.40090375     0.18700
N1540       N  0.72174746  0.40624650  0.40589778    -0.88000
H1541       H  0.76298778  0.43529648  0.29239078     0.36100
H1542       H  0.78962051  0.44481565  0.31145548     0.41200
H1543       H  0.70058705  0.40762208  0.40384720     0.40800
H1544       H  0.72696755  0.41826427  0.42248591     0.35700
C1545       C  0.60312815  0.30373993  0.27842778    -0.26000
C1546       C  0.60530331  0.32094414  0.30097614    -0.14100
C1547       C  0.58358777  0.33867695  0.30714766     0.36500
C1548       C  0.56106173  0.34016723  0.28975333    -0.25500
C1549       C  0.55965302  0.32394855  0.26659091    -0.14700
C1550       C  0.58055336  0.30504683  0.26112786     0.37600
N1551       N  0.58007611  0.28761646  0.23785981    -0.89000
H1552       H  0.61963510  0.28993711  0.27336835     0.18700
H1553       H  0.54514879  0.35491936  0.29383418     0.18700
N1554       N  0.58441655  0.35539897  0.33076303    -0.88000
H1555       H  0.58004142  0.26760429  0.24491972     0.36100
H1556       H  0.56230331  0.29023821  0.22633238     0.41200
H1557       H  0.56761201  0.35082575  0.34260527     0.40800
H1558       H  0.58247905  0.37564379  0.32457041     0.35700
C1559       C  0.46532434  0.35833061  0.26434695    -0.26000
C1560       C  0.46828839  0.34322266  0.24051320    -0.14100
C1561       C  0.44528517  0.33364445  0.22679228     0.36500
C1562       C  0.42012664  0.33655814  0.23907886    -0.25500
C1563       C  0.41770254  0.34754914  0.26535310    -0.14700
C1564       C  0.44040462  0.36008610  0.27730028     0.37600
N1565       N  0.43931278  0.37338884  0.30295517    -0.89000
H1566       H  0.48307668  0.36672186  0.27422856     0.18700
H1567       H  0.40274923  0.32792213  0.22877218     0.18700
N1568       N  0.44679820  0.31925085  0.20161506    -0.88000
H1569       H  0.43480791  0.35915856  0.31789233     0.36100
H1570       H  0.42398004  0.38829881  0.30208590     0.41200
H1571       H  0.46675098  0.31759539  0.19486540     0.40800
H1572       H  0.43600618  0.33069498  0.18708690     0.35700
C1573       C  0.32871544  0.59679126  0.39705041    -0.26000
C1574       C  0.34473730  0.60715942  0.37648234    -0.14100
C1575       C  0.34531175  0.59422063  0.35114030     0.36500
C1576       C  0.32573744  0.57517631  0.34505414    -0.25500
C1577       C  0.31017341  0.56388574  0.36549241    -0.14700
C1578       C  0.31354069  0.57337388  0.39244957     0.37600
N1579       N  0.30244571  0.55895550  0.41497439    -0.89000
H1580       H  0.32934344  0.60595534  0.41692725     0.18700
H1581       H  0.32359090  0.56854454  0.32437150     0.18700
N1582       N  0.36619535  0.59977032  0.33199343    -0.88000
H1583       H  0.30674418  0.56884487  0.43316252     0.36100
H1584       H  0.31227866  0.54003719  0.41602770     0.41200
H1585       H  0.36424269  0.61997429  0.32667443     0.40800
H1586       H  0.36352128  0.58854310  0.31428307     0.35700
C1587       C  0.29325904  0.45484536  0.32543938    -0.26000
C1588       C  0.30014450  0.46917759  0.34882293    -0.14100
C1589       C  0.31930414  0.45790756  0.36746168     0.36500
C1590       C  0.32956725  0.43159244  0.36325047    -0.25500
C1591       C  0.32186824  0.41687865  0.34038860    -0.14700
C1592       C  0.30387500  0.42864915  0.32105927     0.37600
N1593       N  0.29582109  0.41358048  0.29752122    -0.89000
H1594       H  0.27928177  0.46400043  0.31080513     0.18700
H1595       H  0.34286358  0.42210971  0.37830750     0.18700
N1596       N  0.32762245  0.47275144  0.39102082    -0.88000
H1597       H  0.28282791  0.42529901  0.28512004     0.36100
H1598       H  0.28455206  0.39703128  0.30401889     0.41200
H1599       H  0.33771062  0.49006679  0.38474720     0.40800
H1600       H  0.34150092  0.46137955  0.40277683     0.35700
C1601       C  0.40232481  0.30290329  0.55590398    -0.26000
C1602       C  0.39127250  0.27931362  0.54514132    -0.14100
C1603       C  0.37163696  0.26522350  0.56032687     0.36500
C1604       C  0.36279027  0.27596062  0.58529814    -0.25500
C1605       C  0.37394408  0.29980199  0.59604625    -0.14700
C1606       C  0.39446391  0.31287942  0.58115192     0.37600
N1607       N  0.40664287  0.33722166  0.59089321    -0.89000
H1608       H  0.41690738  0.31416242  0.54422918     0.18700
H1609       H  0.34706339  0.26563714  0.59629528     0.18700
N1610       N  0.35975064  0.24055022  0.55079010    -0.88000
H1611       H  0.40305875  0.35258319  0.57657997     0.36100
H1612       H  0.42764785  0.33382711  0.59243895     0.41200
H1613       H  0.36813753  0.23450132  0.53243982     0.40800
H1614       H  0.36486082  0.22529306  0.56478868     0.35700
C1615       C  0.37018398  0.27694481  0.43206078    -0.26000
C1616       C  0.39184084  0.28888658  0.44561923    -0.14100
C1617       C  0.40570473  0.31076408  0.43348115     0.36500
C1618       C  0.39554311  0.32189295  0.40907885    -0.25500
C1619       C  0.37253153  0.31098368  0.39660690    -0.14700
C1620       C  0.36095006  0.28717069  0.40723088     0.37600
N1621       N  0.33906535  0.27408759  0.39307673    -0.89000
H1622       H  0.36019463  0.25976122  0.44112606     0.18700
H1623       H  0.40479050  0.33977288  0.40061241     0.18700
N1624       N  0.42966502  0.32234349  0.44536681    -0.88000
H1625       H  0.33264834  0.25703026  0.40373509     0.36100
H1626       H  0.34666141  0.26707517  0.37467859     0.41200
H1627       H  0.43539852  0.31252158  0.46333457     0.40800
H1628       H  0.42513732  0.34250555  0.45018626     0.35700
C1629       C  0.36097121  0.70457894  0.52586991    -0.26000
C1630       C  0.35846098  0.73196198  0.53333620    -0.14100
C1631       C  0.33334943  0.74151841  0.54354736     0.36500
C1632       C  0.31145686  0.72371304  0.54554200    -0.25500
C1633       C  0.31368691  0.69652638  0.53732227    -0.14700
C1634       C  0.33878682  0.68691357  0.52729273     0.37600
N1635       N  0.34137240  0.65959443  0.51759929    -0.89000
H1636       H  0.38038085  0.69701553  0.51879676     0.18700
H1637       H  0.29211143  0.73140382  0.55273262     0.18700
N1638       N  0.32899111  0.76933284  0.55106835    -0.88000
H1639       H  0.36113599  0.65570577  0.51092897     0.36100
H1640       H  0.32858571  0.65785390  0.50065243     0.41200
H1641       H  0.34589866  0.78111186  0.54698497     0.40800
H1642       H  0.32603918  0.76981881  0.57197161     0.35700
C1643       C  0.27057721  0.57270451  0.53371127    -0.26000
C1644       C  0.25694453  0.59459245  0.54632286    -0.14100
C1645       C  0.25634898  0.59324659  0.57504207     0.36500
C1646       C  0.26142872  0.56826807  0.58862239    -0.25500
C1647       C  0.27237346  0.54538074  0.57539763    -0.14700
C1648       C  0.27782364  0.54845286  0.54746428     0.37600
N1649       N  0.29203815  0.52807468  0.53255573    -0.89000
H1650       H  0.27779876  0.57491526  0.51339187     0.18700
H1651       H  0.25869114  0.56738586  0.61028991     0.18700
N1652       N  0.25365920  0.61755709  0.59072309    -0.88000
H1653       H  0.27928405  0.51156472  0.53050692     0.36100
H1654       H  0.30975429  0.52235399  0.54315893     0.41200
H1655       H  0.27122011  0.62879692  0.58804782     0.40800
H1656       H  0.25291171  0.61302002  0.61138517     0.35700
C1657       C  0.24264162  0.59726413  0.40652331    -0.26000
C1658       C  0.23336865  0.58630838  0.43093949    -0.14100
C1659       C  0.22738323  0.55842181  0.43167007     0.36500
C1660       C  0.23682117  0.54149676  0.41108126    -0.25500
C1661       C  0.25119214  0.55168376  0.38879383    -0.14700
C1662       C  0.25001790  0.58035369  0.38486023     0.37600
N1663       N  0.25519344  0.59293979  0.35919062    -0.89000
H1664       H  0.24498959  0.61896744  0.40448316     0.18700
H1665       H  0.23269317  0.52039921  0.41344701     0.18700
N1666       N  0.21125026  0.54666652  0.45259398    -0.88000
H1667       H  0.27253270  0.60479418  0.36105604     0.36100
H1668       H  0.25825641  0.57860783  0.34402433     0.41200
H1669       H  0.20237769  0.56150904  0.46478258     0.40800
H1670       H  0.22393540  0.53425071  0.46462439     0.35700
C1671       C  0.71829601  0.65189129  0.51781544    -0.26000
C1672       C  0.73647496  0.65861143  0.49688234    -0.14100
C1673       C  0.72826218  0.68003010  0.47905474     0.36500
C1674       C  0.70477206  0.69571357  0.48449144    -0.25500
C1675       C  0.68623105  0.68844215  0.50454077    -0.14700
C1676       C  0.69288438  0.66560916  0.52092138     0.37600
N1677       N  0.67364668  0.65592116  0.54016005    -0.89000
H1678       H  0.72333160  0.63536249  0.53146916     0.18700
H1679       H  0.70010371  0.71316188  0.47185731     0.18700
N1680       N  0.74269666  0.68501191  0.45447854    -0.88000
H1681       H  0.68146252  0.63897553  0.55058361     0.36100
H1682       H  0.65650821  0.64953758  0.52937217     0.41200
H1683       H  0.73381985  0.70112868  0.44354747     0.40800
H1684       H  0.74068204  0.66782497  0.44234868     0.35700
C1685       C  0.85595446  0.53787224  0.41689419    -0.26000
C1686       C  0.84067599  0.55498966  0.43348981    -0.14100
C1687       C  0.81261329  0.55868972  0.42891368     0.36500
C1688       C  0.79985110  0.54396737  0.40909857    -0.25500
C1689       C  0.81453005  0.52621184  0.39279268    -0.14700
C1690       C  0.84313397  0.52358301  0.39599735     0.37600
N1691       N  0.85948859  0.50658616  0.37889527    -0.89000
H1692       H  0.87766405  0.53557960  0.42030367     0.18700
H1693       H  0.77806405  0.54579569  0.40745830     0.18700
N1694       N  0.79683393  0.57695443  0.44506545    -0.88000
H1695       H  0.87336355  0.51905280  0.36918229     0.36100
H1696       H  0.84781791  0.49791137  0.36353563     0.41200
H1697       H  0.78190453  0.56584345  0.45486026     0.40800
H1698       H  0.78698370  0.59092712  0.43217967     0.35700
C1699       C  0.81813169  0.53643280  0.56990082    -0.26000
C1700       C  0.79479533  0.52125729  0.56323304    -0.14100
C1701       C  0.78016414  0.53049734  0.53987339     0.36500
C1702       C  0.78742709  0.55501605  0.52585832    -0.25500
C1703       C  0.81016711  0.57108183  0.53314835    -0.14700
C1704       C  0.82662099  0.55961979  0.55471737     0.37600
N1705       N  0.85273825  0.57024834  0.56146768    -0.89000
H1706       H  0.83021563  0.53011664  0.58735840     0.18700
H1707       H  0.77542215  0.56113208  0.50832990     0.18700
N1708       N  0.75755489  0.51500594  0.53037736    -0.88000
H1709       H  0.85042690  0.58951531  0.56963961     0.36100
H1710       H  0.86435585  0.57127401  0.54394775     0.41200
H1711       H  0.76535894  0.49637593  0.52381891     0.40800
H1712       H  0.74840123  0.52433857  0.51347946     0.35700
C1713       C  0.83101060  0.70422574  0.34481162    -0.26000
C1714       C  0.83868825  0.72271049  0.36502530    -0.14100
C1715       C  0.81878932  0.74056144  0.37522748     0.36500
C1716       C  0.79191014  0.73987492  0.36487963    -0.25500
C1717       C  0.78413865  0.72176298  0.34417057    -0.14700
C1718       C  0.80429211  0.70361337  0.33425272     0.37600
N1719       N  0.79829034  0.68394028  0.31392968    -0.89000
H1720       H  0.84616385  0.69033825  0.33689477     0.18700
H1721       H  0.77690613  0.75381117  0.37302798     0.18700
N1722       N  0.82624971  0.75992591  0.39551684    -0.88000
H1723       H  0.79157056  0.69405267  0.29640113     0.36100
H1724       H  0.78285169  0.67154059  0.32097137     0.41200
H1725       H  0.80945489  0.77197764  0.40071212     0.40800
H1726       H  0.83203266  0.74910079  0.41294829     0.35700
C1727       C  0.85069607  0.67886193  0.40976294    -0.26000
C1728       C  0.87063427  0.69845614  0.41656778    -0.14100
C1729       C  0.87863267  0.69715560  0.44457390     0.36500
C1730       C  0.86816724  0.67734904  0.46305903    -0.25500
C1731       C  0.84700239  0.65918023  0.45660460    -0.14700
C1732       C  0.83840715  0.66073645  0.42873126     0.37600
N1733       N  0.81675792  0.64449755  0.41844284    -0.89000
H1734       H  0.84420586  0.67700792  0.38901261     0.18700
H1735       H  0.87740894  0.67635244  0.48295254     0.18700
N1736       N  0.89703876  0.71626431  0.45545276    -0.88000
H1737       H  0.79870750  0.65014241  0.42784672     0.36100
H1738       H  0.82091723  0.62410153  0.42233911     0.41200
H1739       H  0.91378554  0.70558293  0.46356816     0.40800
H1740       H  0.88742847  0.72658219  0.47120065     0.35700
C1741       C  0.94554995  0.78622057  0.36789979    -0.26000
C1742       C  0.93190662  0.76550792  0.35358189    -0.14100
C1743       C  0.93973897  0.76332827  0.32588156     0.36500
C1744       C  0.95779343  0.78230766  0.31324555    -0.25500
C1745       C  0.97038585  0.80396148  0.32723307    -0.14700
C1746       C  0.96424670  0.80464020  0.35552165     0.37600
N1747       N  0.97687874  0.82454799  0.37225888    -0.89000
H1748       H  0.94166945  0.78876394  0.38910860     0.18700
H1749       H  0.96199144  0.77935702  0.29222112     0.18700
N1750       N  0.93049626  0.74080966  0.31036033    -0.88000
H1751       H  0.98771160  0.81441419  0.38768482     0.36100
H1752       H  0.96156078  0.83626510  0.38117687     0.41200
H1753       H  0.92114159  0.74840999  0.29273300     0.40800
H1754       H  0.94756950  0.72948160  0.30454562     0.35700
C1755       C  0.95025438  0.71329565  0.41080595    -0.26000
C1756       C  0.92961542  0.73305883  0.41149265    -0.14100
C1757       C  0.93022036  0.75369235  0.43100624     0.36500
C1758       C  0.95107324  0.75333947  0.45049718    -0.25500
C1759       C  0.97115311  0.73265576  0.45109214    -0.14700
C1760       C  0.97099232  0.71274767  0.43041478     0.37600
N1761       N  0.99152526  0.69196080  0.42848064    -0.89000
H1762       H  0.94994989  0.69791822  0.39521032     0.18700
H1763       H  0.95072686  0.76864940  0.46612449     0.18700
N1764       N  0.90780100  0.77271310  0.43308217    -0.88000
H1765       H  0.99065287  0.67938404  0.44549624     0.36100
H1766       H  0.01055093  0.70107158  0.42769052     0.41200
H1767       H  0.90625262  0.78421817  0.41536202     0.40800
H1768       H  0.91114994  0.78630493  0.44889827     0.35700
C1769       C  0.82552289  0.75551032  0.63935367    -0.26000
C1770       C  0.85145404  0.74703736  0.64838441    -0.14100
C1771       C  0.85379383  0.72557888  0.66745041     0.36500
C1772       C  0.83039740  0.71224589  0.67576096    -0.25500
C1773       C  0.80481681  0.71930008  0.66496286    -0.14700
C1774       C  0.80211674  0.74168624  0.64728438     0.37600
N1775       N  0.77570574  0.75002648  0.63726252    -0.89000
H1776       H  0.82372998  0.77214403  0.62509232     0.18700
H1777       H  0.83235057  0.69547383  0.68993620     0.18700
N1778       N  0.87964648  0.71574009  0.67752636    -0.88000
H1779       H  0.77728905  0.76668591  0.62425054     0.36100
H1780       H  0.76435405  0.75662109  0.65379386     0.41200
H1781       H  0.89558395  0.72681425  0.66964292     0.40800
H1782       H  0.88008199  0.71889483  0.69842672     0.35700
C1783       C  0.87055733  0.69290261  0.60776743    -0.26000
C1784       C  0.86859908  0.71979730  0.59895183    -0.14100
C1785       C  0.85122941  0.72727093  0.57736700     0.36500
C1786       C  0.83705377  0.70712350  0.56382487    -0.25500
C1787       C  0.84167842  0.67967214  0.57015427    -0.14700
C1788       C  0.85748950  0.67247104  0.59323030     0.37600
N1789       N  0.86191234  0.64451903  0.60056651    -0.89000
H1790       H  0.88358166  0.68774733  0.62493629     0.18700
H1791       H  0.82453633  0.71253504  0.54637413     0.18700
N1792       N  0.84986172  0.75489822  0.56790621    -0.88000
H1793       H  0.87315080  0.64295078  0.61862095     0.36100
H1794       H  0.87392660  0.63564814  0.58561351     0.41200
H1795       H  0.84129769  0.76679378  0.58305755     0.40800
H1796       H  0.83689433  0.75672282  0.55104869     0.35700
C1797       C  0.95383384  0.83646939  0.63113960    -0.26000
C1798       C  0.97979310  0.82669957  0.63887112    -0.14100
C1799       C  0.98603282  0.79894308  0.63405621     0.36500
C1800       C  0.96563754  0.78154708  0.62445157    -0.25500
C1801       C  0.93877283  0.79079561  0.62066651    -0.14700
C1802       C  0.93348996  0.81910851  0.62191568     0.37600
N1803       N  0.90771222  0.83101779  0.61397431    -0.89000
H1804       H  0.94901048  0.85788022  0.63287708     0.18700
H1805       H  0.97047345  0.76033255  0.62259779     0.18700
N1806       N  0.01225413  0.78761123  0.64058628    -0.88000
H1807       H  0.89853731  0.83893964  0.63124697     0.36100
H1808       H  0.89469313  0.81675570  0.60552615     0.41200
H1809       H  0.02020031  0.77900266  0.62302510     0.40800
H1810       H  0.00983447  0.77211104  0.65481393     0.35700
C1811       C  0.92235031  0.72928659  0.56214406    -0.26000
C1812       C  0.92821521  0.73190519  0.58973859    -0.14100
C1813       C  0.94881922  0.71515952  0.60173459     0.36500
C1814       C  0.96771339  0.70264897  0.58489611    -0.25500
C1815       C  0.96467901  0.70504297  0.55689902    -0.14700
C1816       C  0.93971508  0.71430929  0.54580365     0.37600
N1817       N  0.93365567  0.71228777  0.51739311    -0.89000
H1818       H  0.90473727  0.73946460  0.55316711     0.18700
H1819       H  0.98615271  0.69375800  0.59358664     0.18700
N1820       N  0.95085366  0.71001498  0.63034714    -0.88000
H1821       H  0.91561802  0.70147727  0.51547665     0.36100
H1822       H  0.94860421  0.70057834  0.50787076     0.41200
H1823       H  0.93513045  0.71951105  0.64075969     0.40800
H1824       H  0.96930098  0.71744446  0.63764952     0.35700
C1825       C  0.23241024  0.76586138  0.66536533    -0.26000
C1826       C  0.21137939  0.74689404  0.66253399    -0.14100
C1827       C  0.21676956  0.72020470  0.67205894     0.36500
C1828       C  0.24214657  0.71339849  0.68453220    -0.25500
C1829       C  0.26299565  0.73248450  0.68774842    -0.14700
C1830       C  0.25789260  0.75914173  0.67760541     0.37600
N1831       N  0.27735949  0.78040547  0.68057174    -0.89000
H1832       H  0.22871458  0.78648143  0.65846822     0.18700
H1833       H  0.24533567  0.69303748  0.69239427     0.18700
N1834       N  0.19604713  0.70020971  0.67054580    -0.88000
H1835       H  0.28318526  0.78629253  0.66117162     0.36100
H1836       H  0.29497161  0.77376963  0.69070606     0.41200
H1837       H  0.19238879  0.69311124  0.69009952     0.40800
H1838       H  0.20357648  0.68390621  0.65929894     0.35700
C1839       C  0.15671111  0.69900884  0.61601788    -0.26000
C1840       C  0.17542463  0.72026027  0.61734815    -0.14100
C1841       C  0.20000249  0.71793628  0.60326322     0.36500
C1842       C  0.20526308  0.69475275  0.58791542    -0.25500
C1843       C  0.18565892  0.67454442  0.58484103    -0.14700
C1844       C  0.16129836  0.67641914  0.59946410     0.37600
N1845       N  0.14032279  0.65664093  0.59681936    -0.89000
H1846       H  0.13787463  0.70050541  0.62708285     0.18700
H1847       H  0.22369627  0.69362468  0.57614097     0.18700
N1848       N  0.21875181  0.73985267  0.60283447    -0.88000
H1849       H  0.13761814  0.64791504  0.61589206     0.36100
H1850       H  0.14631967  0.64090916  0.58403660     0.41200
H1851       H  0.22094500  0.74609707  0.58274354     0.40800
H1852       H  0.23764291  0.73247958  0.60977641     0.35700
C1853       C  0.11945099  0.82685387  0.64607637    -0.26000
C1854       C  0.12202457  0.80087171  0.65820617    -0.14100
C1855       C  0.10506591  0.79587125  0.68063134     0.36500
C1856       C  0.08527440  0.81527191  0.68828687    -0.25500
C1857       C  0.08430833  0.84239819  0.67867471    -0.14700
C1858       C  0.10132339  0.84739042  0.65598712     0.37600
N1859       N  0.10015889  0.87272018  0.64178158    -0.89000
H1860       H  0.13219627  0.83156504  0.62902785     0.18700
H1861       H  0.06953829  0.80777970  0.70098834     0.18700
N1862       N  0.10740441  0.77152458  0.69671627    -0.88000
H1863       H  0.10670298  0.88797236  0.65471380     0.36100
H1864       H  0.08003333  0.87677894  0.63584148     0.41200
H1865       H  0.12131224  0.75776850  0.68859430     0.40800
H1866       H  0.08855689  0.76203201  0.69677121     0.35700
C1867       C  0.12839376  0.74928047  0.58325219    -0.26000
C1868       C  0.12142101  0.75366172  0.61037548    -0.14100
C1869       C  0.09424221  0.74975628  0.61815938     0.36500
C1870       C  0.07434361  0.74423692  0.59846164    -0.25500
C1871       C  0.08135484  0.73992675  0.57150717    -0.14700
C1872       C  0.10896303  0.74170636  0.56385654     0.37600
N1873       N  0.11819084  0.73596834  0.53692759    -0.89000
H1874       H  0.14931982  0.75141918  0.57707781     0.18700
H1875       H  0.05328945  0.74232034  0.60431210     0.18700
N1876       N  0.08713863  0.74953729  0.64611073    -0.88000
H1877       H  0.12747731  0.75330485  0.52940517     0.36100
H1878       H  0.10220136  0.73157417  0.52372579     0.41200
H1879       H  0.09672013  0.73251271  0.65485714     0.40800
H1880       H  0.06623745  0.74691335  0.64840941     0.35700
C1881       C  0.24135881  0.75756701  0.39980089    -0.26000
C1882       C  0.21855146  0.74113459  0.40118990    -0.14100
C1883       C  0.22110340  0.71280672  0.39899256     0.36500
C1884       C  0.24652648  0.70132306  0.39418463    -0.25500
C1885       C  0.26898918  0.71792919  0.39107259    -0.14700
C1886       C  0.26684592  0.74612562  0.39468083     0.37600
N1887       N  0.29035906  0.76291490  0.39230235    -0.89000
H1888       H  0.23900404  0.77927050  0.40237821     0.18700
H1889       H  0.24830841  0.67968742  0.39062140     0.18700
N1890       N  0.19774392  0.69593049  0.40064610    -0.88000
H1891       H  0.28525188  0.78315337  0.39627341     0.36100
H1892       H  0.29671574  0.76227779  0.37221273     0.41200
H1893       H  0.20113891  0.68201266  0.41637024     0.40800
H1894       H  0.19617428  0.68492307  0.38268756     0.35700
C1895       C  0.21483323  0.72995527  0.45906982    -0.26000
C1896       C  0.18706571  0.73029476  0.45168160    -0.14100
C1897       C  0.17134776  0.70832470  0.46071894     0.36500
C1898       C  0.18347732  0.68739314  0.47656433    -0.25500
C1899       C  0.21170164  0.68636622  0.48226384    -0.14700
C1900       C  0.22760843  0.70664367  0.47023679     0.37600
N1901       N  0.25627236  0.70233303  0.46648611    -0.89000
H1902       H  0.22745684  0.74647804  0.45263900     0.18700
H1903       H  0.17075819  0.67101345  0.48325221     0.18700
N1904       N  0.14349691  0.70602210  0.45280301    -0.88000
H1905       H  0.26478853  0.71873577  0.45635042     0.36100
H1906       H  0.25871756  0.68546586  0.45396968     0.41200
H1907       H  0.13183905  0.70510033  0.47031836     0.40800
H1908       H  0.14128027  0.68774787  0.44242319     0.35700
C1909       C  0.12085949  0.77916715  0.36230242    -0.26000
C1910       C  0.13101357  0.79134674  0.38595735    -0.14100
C1911       C  0.11717688  0.81434461  0.39621704     0.36500
C1912       C  0.09330481  0.82421890  0.38300027    -0.25500
C1913       C  0.08267879  0.81131855  0.35998522    -0.14700
C1914       C  0.09690289  0.78866889  0.34950060     0.37600
N1915       N  0.08771949  0.77524480  0.32553184    -0.89000
H1916       H  0.13109311  0.76146319  0.35419713     0.18700
H1917       H  0.08285866  0.84204368  0.39062373     0.18700
N1918       N  0.12753736  0.82768607  0.41987498    -0.88000
H1919       H  0.08618554  0.78952604  0.30986941     0.36100
H1920       H  0.06841782  0.76753802  0.32905131     0.41200
H1921       H  0.11505966  0.84422493  0.42487060     0.40800
H1922       H  0.14652767  0.83548599  0.41506689     0.35700
C1923       C  0.08298608  0.74910540  0.44159890    -0.26000
C1924       C  0.08017729  0.76273548  0.46607370    -0.14100
C1925       C  0.10111094  0.77897467  0.47644740     0.36500
C1926       C  0.12603512  0.77856492  0.46359166    -0.25500
C1927       C  0.12942029  0.76300370  0.44031658    -0.14700
C1928       C  0.10758160  0.74907349  0.42843196     0.37600
N1929       N  0.11060996  0.73489773  0.40319944    -0.89000
H1930       H  0.06644887  0.73702322  0.43374115     0.18700
H1931       H  0.14259749  0.79059581  0.47143261     0.18700
N1932       N  0.09770170  0.79542601  0.50002770    -0.88000
H1933       H  0.09245999  0.72565506  0.39745623     0.36100
H1934       H  0.12519192  0.71947150  0.40571927     0.41200
H1935       H  0.09203584  0.78317788  0.51622163     0.40800
H1936       H  0.08185798  0.80931752  0.49610270     0.35700
C1937       C  0.78067395  0.14291764  0.09670635    -0.26000
C1938       C  0.80028716  0.13148108  0.07969972    -0.14100
C1939       C  0.82584031  0.12369407  0.09037495     0.36500
C1940       C  0.83160135  0.12795724  0.11777317    -0.25500
C1941       C  0.81235740  0.13979720  0.13517643    -0.14700
C1942       C  0.78652249  0.14761373  0.12431921     0.37600
N1943       N  0.76642126  0.16041544  0.14104719    -0.89000
H1944       H  0.76089344  0.14846286  0.08830908     0.18700
H1945       H  0.85149564  0.12187909  0.12547007     0.18700
N1946       N  0.84581872  0.11106013  0.07338018    -0.88000
H1947       H  0.74825156  0.16356853  0.13019347     0.36100
H1948       H  0.77349966  0.17967312  0.14596555     0.41200
H1949       H  0.83825225  0.09242383  0.06706855     0.40800
H1950       H  0.86378844  0.10684364  0.08422173     0.35700
C1951       C  0.91178310  0.94243507  0.28969734    -0.26000
C1952       C  0.89873604  0.95652819  0.31053285    -0.14100
C1953       C  0.90404184  0.94876010  0.33776643     0.36500
C1954       C  0.92234624  0.92713073  0.34316301    -0.25500
C1955       C  0.93454832  0.91287238  0.32194345    -0.14700
C1956       C  0.92864012  0.92015441  0.29501120     0.37600
N1957       N  0.94099906  0.90544488  0.27318562    -0.89000
H1958       H  0.90916367  0.94910786  0.26899754     0.18700
H1959       H  0.92742961  0.92169481  0.36389377     0.18700
N1960       N  0.89123123  0.96198586  0.36022524    -0.88000
H1961       H  0.93490347  0.91362099  0.25447554     0.36100
H1962       H  0.93369505  0.88566470  0.27376296     0.41200
H1963       H  0.87756647  0.97715968  0.35384965     0.40800
H1964       H  0.90645357  0.97150672  0.37146789     0.35700
C1965       C  0.83448108  0.06009251  0.28391633    -0.26000
C1966       C  0.85822589  0.04483415  0.27937823    -0.14100
C1967       C  0.87609835  0.05267281  0.25894287     0.36500
C1968       C  0.86980421  0.07520136  0.24309809    -0.25500
C1969       C  0.84581030  0.09033417  0.24697267    -0.14700
C1970       C  0.82790499  0.08282912  0.26778587     0.37600
N1971       N  0.80331480  0.09810325  0.27255020    -0.89000
H1972       H  0.82029635  0.05324869  0.29900186     0.18700
H1973       H  0.88370577  0.08042442  0.22711549     0.18700
N1974       N  0.89960668  0.03661151  0.25261509    -0.88000
H1975       H  0.79352015  0.09076335  0.28968444     0.36100
H1976       H  0.79012151  0.09468316  0.25621348     0.41200
H1977       H  0.89808678  0.03036142  0.23248397     0.40800
H1978       H  0.91655445  0.04907177  0.25415325     0.35700
C1979       C  0.07555234  0.93178734  0.28865701    -0.26000
C1980       C  0.06134288  0.95333266  0.27516720    -0.14100
C1981       C  0.03397187  0.94691029  0.26766391     0.36500
C1982       C  0.02249855  0.92085267  0.27430208    -0.25500
C1983       C  0.03716988  0.89917459  0.28766099    -0.14700
C1984       C  0.06523974  0.90486483  0.29168338     0.37600
N1985       N  0.08439826  0.88285389  0.29447782    -0.89000
H1986       H  0.09662514  0.93502372  0.29405664     0.18700
H1987       H  0.00158271  0.91740519  0.26834615     0.18700
N1988       N  0.01727354  0.96580171  0.25245813    -0.88000
H1989       H  0.10430663  0.88987224  0.29597692     0.36100
H1990       H  0.08331990  0.87135435  0.27678675     0.41200
H1991       H  0.02758657  0.98376547  0.24889463     0.40800
H1992       H  0.00057802  0.97092465  0.26439051     0.35700
C1993       C  0.94747398  0.21588361  0.13419337    -0.26000
C1994       C  0.95724543  0.24000466  0.14495830    -0.14100
C1995       C  0.94248824  0.25361145  0.16531870     0.36500
C1996       C  0.91854611  0.24227265  0.17478610    -0.25500
C1997       C  0.90906899  0.21742955  0.16483753    -0.14700
C1998       C  0.92367687  0.20442178  0.14375094     0.37600
N1999       N  0.91536280  0.17944714  0.13177053    -0.89000
H2000       H  0.95900974  0.20535001  0.11879970     0.18700
H2001       H  0.90762175  0.25286036  0.19055194     0.18700
N2002       N  0.95070603  0.27923768  0.17626759    -0.88000
H2003       H  0.91580417  0.16419376  0.14651520     0.36100
H2004       H  0.89568291  0.18194314  0.12381676     0.41200
H2005       H  0.96856631  0.28605493  0.16753031     0.40800
H2006       H  0.95468207  0.27653572  0.19693170     0.35700
C2007       C  0.21776562  0.11650108  0.05836794    -0.26000
C2008       C  0.24555181  0.12315309  0.05819403    -0.14100
C2009       C  0.25709744  0.13469638  0.08141979     0.36500
C2010       C  0.24063973  0.14101292  0.10363593    -0.25500
C2011       C  0.21238602  0.13664922  0.10307673    -0.14700
C2012       C  0.20089924  0.12370011  0.08037779     0.37600
N2013       N  0.17214397  0.11915300  0.07914727    -0.89000
H2014       H  0.20886800  0.10733914  0.04053170     0.18700
H2015       H  0.24970244  0.15134946  0.12075096     0.18700
N2016       N  0.28530684  0.14142871  0.08191459    -0.88000
H2017       H  0.16693672  0.10942621  0.06110424     0.36100
H2018       H  0.16230024  0.13809455  0.07863860     0.41200
H2019       H  0.29454632  0.13135142  0.09834535     0.40800
H2020       H  0.28678532  0.16228808  0.08514261     0.35700
C2021       C  0.12074658  0.07360931  0.19909058    -0.26000
C2022       C  0.13714824  0.08849072  0.21704585    -0.14100
C2023       C  0.13891219  0.07934578  0.24441612     0.36500
C2024       C  0.12621411  0.05540164  0.25256558    -0.25500
C2025       C  0.11048609  0.04024879  0.23471605    -0.14700
C2026       C  0.10730104  0.04980459  0.20757860     0.37600
N2027       N  0.09100228  0.03572774  0.18799147    -0.89000
H2028       H  0.11865601  0.08019918  0.17821937     0.18700
H2029       H  0.12953119  0.04810037  0.27300881     0.18700
N2030       N  0.15377790  0.09421631  0.26439824    -0.88000
H2031       H  0.07544913  0.04903097  0.18156273     0.36100
H2032       H  0.08134813  0.01923188  0.19674274     0.41200
H2033       H  0.16900310  0.08147111  0.27254834     0.40800
H2034       H  0.14045854  0.09947354  0.27991325     0.35700
C2035       C  0.07042037  0.22479808  0.11738379    -0.26000
C2036       C  0.05680571  0.23379186  0.14066080    -0.14100
C2037       C  0.06953522  0.22930356  0.16618717     0.36500
C2038       C  0.09443055  0.21503481  0.16801326    -0.25500
C2039       C  0.10800637  0.20628985  0.14483481    -0.14700
C2040       C  0.09610449  0.21158096  0.11919299     0.37600
N2041       N  0.11025699  0.20371165  0.09514814    -0.89000
H2042       H  0.06101545  0.22822973  0.09769906     0.18700
H2043       H  0.10407738  0.21228160  0.18770271     0.18700
N2044       N  0.05867213  0.24123202  0.19015076    -0.88000
H2045       H  0.09894051  0.20925205  0.07788687     0.36100
H2046       H  0.11186920  0.18255250  0.09516363     0.41200
H2047       H  0.07294744  0.25474788  0.19785665     0.40800
H2048       H  0.05663268  0.22581891  0.20454028     0.35700
C2049       C  0.86877084  0.73808080  0.30836287    -0.26000
C2050       C  0.87296552  0.75550069  0.33016412    -0.14100
C2051       C  0.86696472  0.78354079  0.32720810     0.36500
C2052       C  0.85676537  0.79324238  0.30227419    -0.25500
C2053       C  0.85184041  0.77544668  0.28069418    -0.14700
C2054       C  0.85817415  0.74766816  0.28382952     0.37600
N2055       N  0.85485587  0.72919670  0.26178574    -0.89000
H2056       H  0.87436636  0.71682525  0.31020959     0.18700
H2057       H  0.85217501  0.81469452  0.29991717     0.18700
N2058       N  0.87021049  0.80250440  0.34898076    -0.88000
H2059       H  0.84177487  0.71390870  0.26794667     0.36100
H2060       H  0.87379477  0.72027509  0.25776936     0.41200
H2061       H  0.88565713  0.81575809  0.34364694     0.40800
H2062       H  0.87636430  0.79294683  0.36695236     0.35700
C2063       C  0.78709914  0.86208765  0.05797171    -0.26000
C2064       C  0.80502187  0.87089447  0.03825813    -0.14100
C2065       C  0.83267738  0.87444658  0.04437673     0.36500
C2066       C  0.84235039  0.86853462  0.07038125    -0.25500
C2067       C  0.82461872  0.85899856  0.08998135    -0.14700
C2068       C  0.79666781  0.85602625  0.08401483     0.37600
N2069       N  0.77822590  0.84709765  0.10447203    -0.89000
H2070       H  0.76572161  0.85994424  0.05294999     0.18700
H2071       H  0.86375989  0.87088033  0.07512615     0.18700
N2072       N  0.85077221  0.88450545  0.02434309    -0.88000
H2073       H  0.75844978  0.84588645  0.09659839     0.36100
H2074       H  0.77770204  0.86190411  0.11953495     0.41200
H2075       H  0.86653610  0.87026554  0.02204574     0.40800
H2076       H  0.85922636  0.90239850  0.03164180     0.35700
C2077       C  0.85759925  0.90030804  0.26508703    -0.26000
C2078       C  0.86713057  0.90222163  0.23837003    -0.14100
C2079       C  0.87051456  0.92789698  0.22654875     0.36500
C2080       C  0.86414434  0.95097364  0.24163194    -0.25500
C2081       C  0.85460348  0.94903511  0.26824928    -0.14700
C2082       C  0.85106625  0.92331033  0.28004833     0.37600
N2083       N  0.84145351  0.91979155  0.30718083    -0.89000
H2084       H  0.85459205  0.88062951  0.27434161     0.18700
H2085       H  0.86924463  0.97048265  0.23340280     0.18700
N2086       N  0.88009850  0.93056331  0.19932295    -0.88000
H2087       H  0.85734371  0.91118193  0.31873682     0.36100
H2088       H  0.83628248  0.93830493  0.31604334     0.41200
H2089       H  0.90038271  0.92390367  0.19928227     0.40800
H2090       H  0.88013378  0.95093625  0.19337298     0.35700
C2091       C  0.00866097  0.77538908  0.17695343    -0.26000
C2092       C  0.01479067  0.79259872  0.15517804    -0.14100
C2093       C  0.01929825  0.82015172  0.16121795     0.36500
C2094       C  0.01668732  0.83001297  0.18810922    -0.25500
C2095       C  0.01007572  0.81298146  0.21014252    -0.14700
C2096       C  0.00680246  0.78495396  0.20401658     0.37600
N2097       N  0.00262240  0.76561424  0.22513480    -0.89000
H2098       H  0.00587675  0.75403179  0.17297165     0.18700
H2099       H  0.01962683  0.85140957  0.19155944     0.18700
N2100       N  0.02658348  0.83841859  0.14009173    -0.88000
H2101       H  0.01845615  0.75123736  0.22463180     0.36100
H2102       H  0.98441424  0.75568231  0.22102694     0.41200
H2103       H  0.04563001  0.84625470  0.14501901     0.40800
H2104       H  0.01263178  0.85461305  0.14006040     0.35700
C2105       C  0.95077620  0.76838215  0.13024703    -0.26000
C2106       C  0.96822478  0.78507941  0.11569372    -0.14100
C2107       C  0.96034149  0.81217271  0.11057801     0.36500
C2108       C  0.93610728  0.82264250  0.12138620    -0.25500
C2109       C  0.91893603  0.80639120  0.13689559    -0.14700
C2110       C  0.92582143  0.77851409  0.14028758     0.37600
N2111       N  0.90809828  0.76080383  0.15471970    -0.89000
H2112       H  0.95695221  0.74756342  0.13430388     0.18700
H2113       H  0.93070108  0.84371368  0.11757805     0.18700
N2114       N  0.97712254  0.82930119  0.09461994    -0.88000
H2115       H  0.91713304  0.74160307  0.15713310     0.36100
H2116       H  0.89086056  0.75796176  0.14253675     0.41200
H2117       H  0.96565649  0.83578143  0.07778301     0.40800
H2118       H  0.98158274  0.84651366  0.10593504     0.35700
C2119       C  0.19458538  0.76493394  0.31573778    -0.26000
C2120       C  0.19474159  0.79236770  0.30861723    -0.14100
C2121       C  0.19335467  0.81260761  0.32867719     0.36500
C2122       C  0.18951423  0.80473123  0.35543528    -0.25500
C2123       C  0.18747221  0.77731228  0.36232000    -0.14700
C2124       C  0.19037900  0.75711655  0.34247628     0.37600
N2125       N  0.18724173  0.72898253  0.34914435    -0.89000
H2126       H  0.19561026  0.74964136  0.30007384     0.18700
H2127       H  0.18734621  0.82012126  0.37088531     0.18700
N2128       N  0.19539573  0.84106975  0.32264123    -0.88000
H2129       H  0.19001988  0.71680248  0.33211489     0.36100
H2130       H  0.16723736  0.72627148  0.35537377     0.41200
H2131       H  0.19973873  0.84440984  0.30229856     0.40800
H2132       H  0.21213597  0.84833874  0.33348107     0.35700
C2133       C  0.07228693  0.76177469  0.15198735    -0.26000
C2134       C  0.06701676  0.77684370  0.12838958    -0.14100
C2135       C  0.08278823  0.79970183  0.12269565     0.36500
C2136       C  0.10263419  0.80775360  0.14130258    -0.25500
C2137       C  0.10684411  0.79369996  0.16590965    -0.14700
C2138       C  0.09183749  0.77005640  0.17088789     0.37600
N2139       N  0.09601311  0.75453855  0.19519035    -0.89000
H2140       H  0.05983346  0.74446634  0.15664963     0.18700
H2141       H  0.11421036  0.82569488  0.13679562     0.18700
N2142       N  0.07827129  0.81580441  0.09881892    -0.88000
H2143       H  0.10144982  0.73473783  0.18977532     0.36100
H2144       H  0.07753040  0.75386385  0.20538607     0.41200
H2145       H  0.05799185  0.82241735  0.09813622     0.40800
H2146       H  0.08183059  0.80358654  0.08202058     0.35700
C2147       C  0.13712992  0.93127548  0.25598711    -0.26000
C2148       C  0.11310335  0.93995809  0.24255149    -0.14100
C2149       C  0.10152302  0.92257222  0.22290333     0.36500
C2150       C  0.11471796  0.89778062  0.21669155    -0.25500
C2151       C  0.13913603  0.88948464  0.22963770    -0.14700
C2152       C  0.14998859  0.90626248  0.25018685     0.37600
N2153       N  0.17357261  0.89843211  0.26603701    -0.89000
H2154       H  0.14600223  0.94413631  0.27134680     0.18700
H2155       H  0.10563152  0.88469573  0.20163858     0.18700
N2156       N  0.07679128  0.92947018  0.20846427    -0.88000
H2157       H  0.18874046  0.91249727  0.26219082     0.36100
H2158       H  0.18132255  0.87952173  0.26034338     0.41200
H2159       H  0.06902762  0.94836512  0.21414918     0.40800
H2160       H  0.06226557  0.91521832  0.21381541     0.35700
C2161       C  0.23698076  0.83992712  0.10300178    -0.26000
C2162       C  0.21387349  0.85077654  0.11579145    -0.14100
C2163       C  0.20127922  0.87464295  0.10544071     0.36500
C2164       C  0.21268036  0.88741182  0.08291809    -0.25500
C2165       C  0.23638454  0.87687331  0.07128173    -0.14700
C2166       C  0.24845294  0.85297720  0.08117074     0.37600
N2167       N  0.27265232  0.84208562  0.06926224    -0.89000
H2168       H  0.24697203  0.82156865  0.11041493     0.18700
H2169       H  0.20311696  0.90549395  0.07438399     0.18700
N2170       N  0.17740301  0.88592750  0.11783655    -0.88000
H2171       H  0.26864838  0.82232267  0.06299987     0.36100
H2172       H  0.28778533  0.84096262  0.08429035     0.41200
H2173       H  0.16166168  0.87220123  0.11493018     0.40800
H2174       H  0.17131103  0.90391486  0.10808417     0.35700
C2175       C  0.00856469  0.79813613  0.81452353    -0.26000
C2176       C  0.02209235  0.77332526  0.81039454    -0.14100
C2177       C  0.03541663  0.76847392  0.78584797     0.36500
C2178       C  0.03725657  0.78943130  0.76715311    -0.25500
C2179       C  0.02672491  0.81544573  0.77268973    -0.14700
C2180       C  0.01124224  0.81950697  0.79615935     0.37600
N2181       N  0.99975829  0.84555735  0.80238592    -0.89000
H2182       H  0.99831748  0.80198697  0.83331181     0.18700
H2183       H  0.04776021  0.78544028  0.74843914     0.18700
N2184       N  0.04791414  0.74274177  0.77966437    -0.88000
H2185       H  0.00779720  0.85185682  0.82095504     0.36100
H2186       H  0.97877899  0.84340611  0.80455564     0.41200
H2187       H  0.04436771  0.72835672  0.79472129     0.40800
H2188       H  0.06892159  0.74549022  0.77885061     0.35700
C2189       C  0.17777120  0.81631200  0.69058163    -0.26000
C2190       C  0.17513432  0.78831033  0.68849763    -0.14100
C2191       C  0.17554345  0.77153757  0.71154321     0.36500
C2192       C  0.17923826  0.78308073  0.73664192    -0.25500
C2193       C  0.18129529  0.81111664  0.73896049    -0.14700
C2194       C  0.18066397  0.82801029  0.71592253     0.37600
N2195       N  0.18300765  0.85682594  0.71823200    -0.89000
H2196       H  0.17702426  0.82902357  0.67262661     0.18700
H2197       H  0.17928306  0.77015445  0.75444421     0.18700
N2198       N  0.17088584  0.74301464  0.70970467    -0.88000
H2199       H  0.16560723  0.86584699  0.70949515     0.36100
H2200       H  0.19980726  0.86281654  0.70705514     0.41200
H2201       H  0.18738595  0.73295216  0.71902059     0.40800
H2202       H  0.15364631  0.73858280  0.72096047     0.35700
C2203       C  0.09817939  0.75718721  0.82928001    -0.26000
C2204       C  0.07495494  0.76941682  0.83994379    -0.14100
C2205       C  0.07439158  0.79761858  0.84553542     0.36500
C2206       C  0.09717239  0.81287193  0.83990792    -0.25500
C2207       C  0.12058826  0.80060696  0.82961887    -0.14700
C2208       C  0.12103813  0.77258880  0.82367086     0.37600
N2209       N  0.14436440  0.76009069  0.81131304    -0.89000
H2210       H  0.09826909  0.73565337  0.82499358     0.18700
H2211       H  0.09695034  0.83431220  0.84465233     0.18700
N2212       N  0.05250079  0.81090360  0.85952892    -0.88000
H2213       H  0.14618626  0.76861060  0.79202993     0.36100
H2214       H  0.14135729  0.73935167  0.80849372     0.41200
H2215       H  0.03724248  0.79755125  0.86485602     0.40800
H2216       H  0.04405940  0.82578188  0.84673665     0.35700
C2217       C  0.22352213  0.89197571  0.94082475    -0.26000
C2218       C  0.24135646  0.87414906  0.92785994    -0.14100
C2219       C  0.26809689  0.86990815  0.93774205     0.36500
C2220       C  0.27529863  0.88042591  0.96270885    -0.25500
C2221       C  0.25605288  0.89490551  0.97735028    -0.14700
C2222       C  0.23078484  0.90238490  0.96588781     0.37600
N2223       N  0.21188606  0.91886706  0.98058877    -0.89000
H2224       H  0.20337506  0.89618112  0.93254126     0.18700
H2225       H  0.29492018  0.87515538  0.97164335     0.18700
N2226       N  0.28757182  0.85423749  0.92287598    -0.88000
H2227       H  0.20724923  0.93605547  0.96885983     0.36100
H2228       H  0.19399537  0.90798812  0.98292553     0.41200
H2229       H  0.29390382  0.83778686  0.93492984     0.40800
H2230       H  0.30445892  0.86634924  0.91948964     0.35700
C2231       C  0.10607341  0.99530337  0.74867266    -0.26000
C2232       C  0.13280887  0.99680677  0.73971195    -0.14100
C2233       C  0.14196753  0.97800131  0.72007915     0.36500
C2234       C  0.12425701  0.95797539  0.71047805    -0.25500
C2235       C  0.09760796  0.95563083  0.72018499    -0.14700
C2236       C  0.08872696  0.97472889  0.73982965     0.37600
N2237       N  0.06281367  0.97267347  0.75235795    -0.89000
H2238       H  0.09910857  0.00903031  0.76424975     0.18700
H2239       H  0.13157303  0.94400648  0.69528995     0.18700
N2240       N  0.16912326  0.97834073  0.70960552    -0.88000
H2241       H  0.05204002  0.99085105  0.74898436     0.36100
H2242       H  0.06598553  0.97047641  0.77322385     0.41200
H2243       H  0.18030911  0.99432405  0.71751601     0.40800
H2244       H  0.16755101  0.98190718  0.68877146     0.35700
C2245       C  0.14917296  0.97006297  0.79828863    -0.26000
C2246       C  0.17254027  0.97955442  0.78548056    -0.14100
C2247       C  0.19716171  0.96504461  0.78803228     0.36500
C2248       C  0.19846733  0.94192842  0.80442912    -0.25500
C2249       C  0.17531894  0.93284747  0.81793952    -0.14700
C2250       C  0.15027208  0.94666725  0.81443212     0.37600
N2251       N  0.12636905  0.93739078  0.82788070    -0.89000
H2252       H  0.13043272  0.98180453  0.79705856     0.18700
H2253       H  0.21758937  0.93079621  0.80623871     0.18700
N2254       N  0.22083837  0.97383897  0.77411738    -0.88000
H2255       H  0.10960273  0.94986489  0.82303927     0.36100
H2256       H  0.12978061  0.93924748  0.84870831     0.41200
H2257       H  0.22728874  0.95811836  0.76149509     0.40800
H2258       H  0.23620879  0.97706278  0.78850149     0.35700
C2259       C  0.17651230  0.11085075  0.81743728    -0.26000
C2260       C  0.19409663  0.12777120  0.80327740    -0.14100
C2261       C  0.20245549  0.12039310  0.77701757     0.36500
C2262       C  0.19399554  0.09569522  0.76608916    -0.25500
C2263       C  0.17782466  0.07819789  0.78117650    -0.14700
C2264       C  0.16848242  0.08611247  0.80668118     0.37600
N2265       N  0.15143041  0.06870450  0.82204180    -0.89000
H2266       H  0.16977739  0.11641313  0.83749601     0.18700
H2267       H  0.20125850  0.08945514  0.74642908     0.18700
N2268       N  0.22082490  0.13658089  0.76186996    -0.88000
H2269       H  0.13329904  0.07926187  0.82587825     0.36100
H2270       H  0.16109237  0.06484096  0.84064190     0.41200
H2271       H  0.23866658  0.13877173  0.77331125     0.40800
H2272       H  0.21193153  0.15572960  0.75884230     0.35700
C2273       C  0.25345563  0.15562917  0.92358609    -0.26000
C2274       C  0.27803606  0.16268886  0.91143729    -0.14100
C2275       C  0.30201543  0.16320648  0.92735636     0.36500
C2276       C  0.30105836  0.15515751  0.95463439    -0.25500
C2277       C  0.27656917  0.14661996  0.96609280    -0.14700
C2278       C  0.25254556  0.14748284  0.95051809     0.37600
N2279       N  0.22734106  0.13865516  0.96145966    -0.89000
H2280       H  0.23470108  0.15549216  0.91189852     0.18700
H2281       H  0.31962169  0.15461050  0.96666342     0.18700
N2282       N  0.32759033  0.17043028  0.91609738    -0.88000
H2283       H  0.22035824  0.12255333  0.94973049     0.36100
H2284       H  0.21319037  0.15460593  0.95942617     0.41200
H2285       H  0.32589459  0.19023616  0.90859300     0.40800
H2286       H  0.33168334  0.15743565  0.89994769     0.35700
C2287       C  0.12191638  0.22107613  0.91037778    -0.26000
C2288       C  0.10389477  0.23593441  0.89384344    -0.14100
C2289       C  0.11120315  0.24330836  0.86737610     0.36500
C2290       C  0.13547471  0.23321056  0.85706584    -0.25500
C2291       C  0.15260274  0.21619510  0.87274123    -0.14700
C2292       C  0.14647260  0.21128034  0.90026731     0.37600
N2293       N  0.16476097  0.19602953  0.91772324    -0.89000
H2294       H  0.11601127  0.21560165  0.93071483     0.18700
H2295       H  0.14049544  0.23814894  0.83635234     0.18700
N2296       N  0.09444286  0.26063637  0.85040263    -0.88000
H2297       H  0.15657508  0.19370896  0.93700769     0.36100
H2298       H  0.18236133  0.20741166  0.92023905     0.41200
H2299       H  0.07701505  0.26730050  0.86038195     0.40800
H2300       H  0.08814392  0.24936633  0.83366605     0.35700
C2301       C  0.97883585  0.93794703  0.76059397    -0.26000
C2302       C  0.95385964  0.94443596  0.74822787    -0.14100
C2303       C  0.94905337  0.93463117  0.72170178     0.36500
C2304       C  0.96946413  0.91902776  0.70818250    -0.25500
C2305       C  0.99459219  0.91201140  0.72078445    -0.14700
C2306       C  0.99883597  0.92206783  0.74757202     0.37600
N2307       N  0.02349706  0.91584116  0.76220286    -0.89000
H2308       H  0.98285798  0.94501035  0.78093452     0.18700
H2309       H  0.96570068  0.91285512  0.68758218     0.18700
N2310       N  0.92373238  0.94115931  0.70822659    -0.88000
H2311       H  0.01843540  0.90535582  0.77982620     0.36100
H2312       H  0.03219364  0.93403502  0.76818014     0.41200
H2313       H  0.90830614  0.93166875  0.71888152     0.40800
H2314       H  0.92339211  0.93296987  0.68875613     0.35700
C2315       C  0.89664672  0.07001513  0.80182500    -0.26000
C2316       C  0.89642456  0.07040676  0.83029905    -0.14100
C2317       C  0.90402789  0.04659738  0.84470621     0.36500
C2318       C  0.91120900  0.02307569  0.83022368    -0.25500
C2319       C  0.91056012  0.02253431  0.80173372    -0.14700
C2320       C  0.90343063  0.04634765  0.78751709     0.37600
N2321       N  0.90156039  0.04620728  0.75859734    -0.89000
H2322       H  0.89013863  0.08792740  0.79054863     0.18700
H2323       H  0.91676255  0.00481513  0.84135913     0.18700
N2324       N  0.90359373  0.04515402  0.87375191    -0.88000
H2325       H  0.88161747  0.05152382  0.75296310     0.36100
H2326       H  0.91439341  0.06115962  0.75122826     0.41200
H2327       H  0.89790645  0.06372961  0.88217462     0.40800
H2328       H  0.92347283  0.04105017  0.88049086     0.35700
C2329       C  0.98033686  0.17201802  0.89337318    -0.26000
C2330       C  0.95892864  0.18857689  0.88378326    -0.14100
C2331       C  0.96177713  0.21710097  0.88430752     0.36500
C2332       C  0.98640180  0.22836188  0.89211186    -0.25500
C2333       C  0.00809018  0.21197627  0.90090780    -0.14700
C2334       C  0.00479011  0.18344886  0.90253913     0.37600
N2335       N  0.02565540  0.16561507  0.91332050    -0.89000
H2336       H  0.97830916  0.15017778  0.89322325     0.18700
H2337       H  0.98865563  0.25015376  0.89099430     0.18700
N2338       N  0.93966955  0.23490400  0.87672845    -0.88000
H2339       H  0.01720928  0.15474181  0.92926708     0.36100
H2340       H  0.04127736  0.17667545  0.92218679     0.41200
H2341       H  0.94587281  0.24700480  0.86058455     0.40800
H2342       H  0.93546726  0.24757970  0.89310777     0.35700
C2343       C  0.84980338  0.11323971  0.94779919    -0.26000
C2344       C  0.83857078  0.13216886  0.92947534    -0.14100
C2345       C  0.81536181  0.14764608  0.93743959     0.36500
C2346       C  0.80394965  0.14336495  0.96308363    -0.25500
C2347       C  0.81467502  0.12385130  0.98111150    -0.14700
C2348       C  0.83803218  0.10852798  0.97321713     0.37600
N2349       N  0.85065262  0.08821691  0.99038660    -0.89000
H2350       H  0.86721331  0.10103792  0.94181890     0.18700
H2351       H  0.78626985  0.15526946  0.96889165     0.18700
N2352       N  0.80255798  0.16763441  0.91997524    -0.88000
H2353       H  0.85003818  0.06972353  0.98017587     0.36100
H2354       H  0.84007821  0.08565060  0.00835476     0.41200
H2355       H  0.81315469  0.17006904  0.90199862     0.40800
H2356       H  0.80346002  0.18631175  0.92983692     0.35700
C2357       C  0.89881495  0.78216760  0.71152146    -0.26000
C2358       C  0.87179822  0.79017768  0.71468084    -0.14100
C2359       C  0.85724382  0.80291325  0.69342375     0.36500
C2360       C  0.86855473  0.80333217  0.66787177    -0.25500
C2361       C  0.89313088  0.78961204  0.66356648    -0.14700
C2362       C  0.90978352  0.78171930  0.68589920     0.37600
N2363       N  0.93688792  0.77129614  0.68322362    -0.89000
H2364       H  0.91062279  0.77422093  0.72854260     0.18700
H2365       H  0.85617734  0.81025747  0.65080669     0.18700
N2366       N  0.83052292  0.81403643  0.69747807    -0.88000
H2367       H  0.94880274  0.78668947  0.67541876     0.36100
H2368       H  0.93695180  0.75474154  0.67023183     0.41200
H2369       H  0.81704279  0.80407346  0.68452019     0.40800
H2370       H  0.83065531  0.83449701  0.69187183     0.35700
C2371       C  0.80932280  0.87609347  0.89640441    -0.26000
C2372       C  0.79767581  0.85166788  0.88843322    -0.14100
C2373       C  0.78020400  0.83772174  0.90578075     0.36500
C2374       C  0.77664020  0.84740912  0.93189980    -0.25500
C2375       C  0.79078512  0.87018603  0.94051198    -0.14700
C2376       C  0.80705738  0.88487208  0.92279452     0.37600
N2377       N  0.82232896  0.90769473  0.93194717    -0.89000
H2378       H  0.82233988  0.88703132  0.88273557     0.18700
H2379       H  0.76392044  0.83648056  0.94585268     0.18700
N2380       N  0.76758266  0.81303101  0.89764952    -0.88000
H2381       H  0.83328037  0.91623371  0.91612865     0.36100
H2382       H  0.83656025  0.90095958  0.94640218     0.41200
H2383       H  0.74654842  0.81558682  0.89950743     0.40800
H2384       H  0.77395462  0.79765928  0.91103493     0.35700
C2385       C  0.91004968  0.88713402  0.81289818    -0.26000
C2386       C  0.88845669  0.87437571  0.79961198    -0.14100
C2387       C  0.87493071  0.88745566  0.77751963     0.36500
C2388       C  0.88284055  0.91343674  0.76989266    -0.25500
C2389       C  0.90430730  0.92589847  0.78324303    -0.14700
C2390       C  0.91820212  0.91288428  0.80481721     0.37600
N2391       N  0.94025186  0.92608427  0.81858513    -0.89000
H2392       H  0.92037823  0.87710400  0.82975632     0.18700
H2393       H  0.87204248  0.92417977  0.75376315     0.18700
N2394       N  0.85250029  0.87496630  0.76370282    -0.88000
H2395       H  0.94846016  0.91358142  0.83385322     0.36100
H2396       H  0.93236770  0.94328244  0.82815932     0.41200
H2397       H  0.86052149  0.85929617  0.75191315     0.40800
H2398       H  0.84317481  0.88856773  0.75006236     0.35700
C2399       C  0.94285586  0.77696988  0.86020330    -0.26000
C2400       C  0.92693820  0.76751995  0.83869929    -0.14100
C2401       C  0.93735034  0.74687110  0.82164128     0.36500
C2402       C  0.96396041  0.73738499  0.82577822    -0.25500
C2403       C  0.98005815  0.74823677  0.84638621    -0.14700
C2404       C  0.96932608  0.76779092  0.86396549     0.37600
N2405       N  0.98579076  0.77987533  0.88453456    -0.89000
H2406       H  0.93538869  0.79286620  0.87337891     0.18700
H2407       H  0.97245297  0.72230607  0.81227532     0.18700
N2408       N  0.92164855  0.73520543  0.80016828    -0.88000
H2409       H  0.97577733  0.77745228  0.90290241     0.36100
H2410       H  0.98667285  0.80069071  0.88064758     0.41200
H2411       H  0.91758429  0.74994398  0.78536860     0.40800
H2412       H  0.90334442  0.72837560  0.80805826     0.35700
C2413       C  0.53297354  0.28449168  0.70020765    -0.26000
C2414       C  0.52901885  0.28661934  0.67216626    -0.14100
C2415       C  0.52201461  0.31183419  0.66054951     0.36500
C2416       C  0.51966192  0.33477000  0.67712542    -0.25500
C2417       C  0.52493850  0.33284617  0.70500683    -0.14700
C2418       C  0.53105168  0.30724813  0.71681130     0.37600
N2419       N  0.53596511  0.30368765  0.74536444    -0.89000
H2420       H  0.53797430  0.26494190  0.70917855     0.18700
H2421       H  0.51445947  0.35426288  0.66816618     0.18700
N2422       N  0.51703732  0.31404606  0.63203718    -0.88000
H2423       H  0.52090203  0.29098788  0.75273269     0.36100
H2424       H  0.53396576  0.32188966  0.75584092     0.41200
H2425       H  0.53052886  0.32816336  0.62422151     0.40800
H2426       H  0.49727160  0.32168368  0.62905114     0.35700
C2427       C  0.59723439  0.19783835  0.57609185    -0.26000
C2428       C  0.57989951  0.21772026  0.58766657    -0.14100
C2429       C  0.57921767  0.24365955  0.57465919     0.36500
C2430       C  0.59796570  0.24972583  0.55399709    -0.25500
C2431       C  0.61548184  0.22999428  0.54316335    -0.14700
C2432       C  0.61453271  0.20342173  0.55411479     0.37600
N2433       N  0.63026744  0.18134899  0.54317587    -0.89000
H2434       H  0.59684773  0.17723838  0.58371741     0.18700
H2435       H  0.59820906  0.26999168  0.54546125     0.18700
N2436       N  0.55875638  0.26356028  0.58112433    -0.88000
H2437       H  0.64411047  0.17479538  0.55813193     0.36100
H2438       H  0.64152780  0.18741466  0.52651211     0.41200
H2439       H  0.53990163  0.25599797  0.57523274     0.40800
H2440       H  0.56134498  0.28144029  0.57007877     0.35700
C2441       C  0.46203352  0.19870233  0.53775020    -0.26000
C2442       C  0.47448190  0.21210705  0.55943530    -0.14100
C2443       C  0.46939448  0.23994767  0.56327530     0.36500
C2444       C  0.45183177  0.25392397  0.54534153    -0.25500
C2445       C  0.43854517  0.24052055  0.52409263    -0.14700
C2446       C  0.44390039  0.21265712  0.52014934     0.37600
N2447       N  0.43066086  0.19837831  0.49869607    -0.89000
H2448       H  0.46643705  0.17738256  0.53455026     0.18700
H2449       H  0.44886985  0.27550639  0.54776680     0.18700
N2450       N  0.48268799  0.25395766  0.58505385    -0.88000
H2451       H  0.41983712  0.18246647  0.50721941     0.36100
H2452       H  0.44567136  0.18997622  0.48634402     0.41200
H2453       H  0.47562797  0.24595905  0.60323544     0.40800
H2454       H  0.47715048  0.27451095  0.58487745     0.35700
C2455       C  0.82403994  0.98715007  0.80292347    -0.26000
C2456       C  0.82215526  0.98256002  0.83097092    -0.14100
C2457       C  0.84598369  0.97415259  0.84535875     0.36500
C2458       C  0.87060728  0.97006614  0.83138106    -0.25500
C2459       C  0.87242648  0.97525039  0.80354306    -0.14700
C2460       C  0.84873948  0.98389269  0.78917277     0.37600
N2461       N  0.84898081  0.98959884  0.76062713    -0.89000
H2462       H  0.80607887  0.99336088  0.79146130     0.18700
H2463       H  0.88880605  0.96386659  0.84243433     0.18700
N2464       N  0.84545186  0.97083903  0.87423577    -0.88000
H2465       H  0.84469420  0.01028121  0.75803892     0.36100
H2466       H  0.86811735  0.98597040  0.75239463     0.41200
H2467       H  0.84126727  0.98985822  0.88260626     0.40800
H2468       H  0.86456223  0.96469304  0.88171505     0.35700
C2469       C  0.77076488  0.95720667  0.92727990    -0.26000
C2470       C  0.74589437  0.95256791  0.91359960    -0.14100
C2471       C  0.72774681  0.93422138  0.92601813     0.36500
C2472       C  0.73734007  0.91710943  0.94711291    -0.25500
C2473       C  0.76248342  0.92149346  0.95978090    -0.14700
C2474       C  0.77814886  0.94356614  0.95122155     0.37600
N2475       N  0.80108318  0.95321289  0.96659471    -0.89000
H2476       H  0.78385466  0.97315330  0.92036231     0.18700
H2477       H  0.72474679  0.90085290  0.95436144     0.18700
N2478       N  0.69941663  0.93406285  0.91875974    -0.88000
H2479       H  0.81832070  0.95282640  0.95448917     0.36100
H2480       H  0.80525717  0.94114583  0.98356456     0.41200
H2481       H  0.69111433  0.95293620  0.92398577     0.40800
H2482       H  0.68911388  0.91957611  0.93004370     0.35700
C2483       C  0.73509458  0.07405190  0.96066895    -0.26000
C2484       C  0.75062802  0.05329013  0.94874860    -0.14100
C2485       C  0.77660126  0.04698464  0.96021217     0.36500
C2486       C  0.78602540  0.06091656  0.98313016    -0.25500
C2487       C  0.77056451  0.08163616  0.99506532    -0.14700
C2488       C  0.74492857  0.08833612  0.98345459     0.37600
N2489       N  0.72907456  0.11015767  0.99433608    -0.89000
H2490       H  0.71516804  0.07907802  0.95233345     0.18700
H2491       H  0.80583517  0.05567937  0.99146889     0.18700
N2492       N  0.79432874  0.02710500  0.94853127    -0.88000
H2493       H  0.71020835  0.10251345  0.99980713     0.36100
H2494       H  0.72576524  0.12455253  0.97901038     0.41200
H2495       H  0.79601918  0.03120426  0.92785027     0.40800
H2496       H  0.78590869  0.00807019  0.95115406     0.35700
C2497       C  0.22560063  0.01720588  0.84783090    -0.26000
C2498       C  0.25061741  0.02773132  0.84020683    -0.14100
C2499       C  0.25326222  0.03975714  0.81453084     0.36500
C2500       C  0.23109412  0.03988541  0.79632421    -0.25500
C2501       C  0.20620226  0.02849693  0.80341299    -0.14700
C2502       C  0.20322533  0.01785372  0.82982131     0.37600
N2503       N  0.17760262  0.00798644  0.83861144    -0.89000
H2504       H  0.22361818  0.00808914  0.86767621     0.18700
H2505       H  0.23328934  0.04842169  0.77626004     0.18700
N2506       N  0.27877174  0.05116447  0.80695167    -0.88000
H2507       H  0.17176465  0.01913245  0.85556107     0.36100
H2508       H  0.18053853  0.98790215  0.84497413     0.41200
H2509       H  0.28247424  0.06747402  0.81984867     0.40800
H2510       H  0.27749668  0.05915984  0.78733918     0.35700
C2511       C  0.29444246  0.97366811  0.97645416    -0.26000
C2512       C  0.31826767  0.96321828  0.96428128    -0.14100
C2513       C  0.32963994  0.93886940  0.97499730     0.36500
C2514       C  0.31621352  0.92482376  0.99574494    -0.25500
C2515       C  0.29169776  0.93461317  0.00682879    -0.14700
C2516       C  0.28123318  0.95978118  0.99755551     0.37600
N2517       N  0.25694415  0.97096280  0.00927807    -0.89000
H2518       H  0.28569642  0.99260640  0.96903911     0.18700
H2519       H  0.32436131  0.90534968  0.00244133     0.18700
N2520       N  0.35500451  0.92816077  0.96559592    -0.88000
H2521       H  0.25200851  0.98975658  0.00050151     0.36100
H2522       H  0.24089177  0.95810767  0.00468350     0.41200
H2523       H  0.36968030  0.94313453  0.96771686     0.40800
H2524       H  0.35293053  0.92343461  0.94512064     0.35700
C2525       C  0.29387613  0.05862254  0.93847666    -0.26000
C2526       C  0.32010805  0.06304945  0.92754889    -0.14100
C2527       C  0.33720547  0.08020515  0.94338809     0.36500
C2528       C  0.32705890  0.09400963  0.96651727    -0.25500
C2529       C  0.30059439  0.09002909  0.97632428    -0.14700
C2530       C  0.28413429  0.07165357  0.96211095     0.37600
N2531       N  0.25750392  0.06578851  0.97203601    -0.89000
H2532       H  0.28110288  0.04339193  0.92954251     0.18700
H2533       H  0.34024707  0.10784984  0.97717821     0.18700
N2534       N  0.36536680  0.08332667  0.93747002    -0.88000
H2535       H  0.24798190  0.05141044  0.95984755     0.36100
H2536       H  0.24569414  0.08352501  0.97052688     0.41200
H2537       H  0.36705679  0.09314032  0.91889664     0.40800
H2538       H  0.37467871  0.06416579  0.93659563     0.35700
C2539       C  0.52657053  0.66690731  0.68406674    -0.26000
C2540       C  0.51698307  0.68948410  0.69853702    -0.14100
C2541       C  0.51195677  0.68629861  0.72636684     0.36500
C2542       C  0.51629091  0.66093557  0.73915093    -0.25500
C2543       C  0.52624112  0.63829223  0.72492549    -0.14700
C2544       C  0.53122892  0.64143293  0.69677746     0.37600
N2545       N  0.54088484  0.61941393  0.68038956    -0.89000
H2546       H  0.53100073  0.66925253  0.66278012     0.18700
H2547       H  0.51184111  0.65882120  0.76045878     0.18700
N2548       N  0.50227727  0.70893944  0.74170321    -0.88000
H2549       H  0.52616028  0.61590201  0.66543105     0.36100
H2550       H  0.54287473  0.60152001  0.69156572     0.41200
H2551       H  0.51618460  0.71232373  0.75745345     0.40800
H2552       H  0.48373964  0.70370042  0.75026127     0.35700
C2553       C  0.46909508  0.74853746  0.60630125    -0.26000
C2554       C  0.47391956  0.77421865  0.61739866    -0.14100
C2555       C  0.46511519  0.79738546  0.60162255     0.36500
C2556       C  0.45031197  0.79403962  0.57755430    -0.25500
C2557       C  0.44444429  0.76842324  0.56764490    -0.14700
C2558       C  0.45500060  0.74532630  0.58168137     0.37600
N2559       N  0.45172669  0.71821857  0.57168509    -0.89000
H2560       H  0.47770288  0.73061578  0.61571349     0.18700
H2561       H  0.44248460  0.81182275  0.56688007     0.18700
N2562       N  0.47137992  0.82479290  0.60859907    -0.88000
H2563       H  0.47112102  0.70997413  0.56845178     0.36100
H2564       H  0.44168815  0.71817737  0.55296106     0.41200
H2565       H  0.49229736  0.82696277  0.61131255     0.40800
H2566       H  0.46093439  0.83058925  0.62586243     0.35700
C2567       C  0.58393648  0.73136110  0.54746960    -0.26000
C2568       C  0.60698598  0.74517540  0.53884621    -0.14100
C2569       C  0.61509373  0.76844075  0.55364182     0.36500
C2570       C  0.59949246  0.77760824  0.57576497    -0.25500
C2571       C  0.57632781  0.76377954  0.58429960    -0.14700
C2572       C  0.56909444  0.73980168  0.57015053     0.37600
N2573       N  0.54836487  0.72214096  0.57964831    -0.89000
H2574       H  0.57845254  0.71263542  0.53754321     0.18700
H2575       H  0.60544049  0.79581905  0.58631814     0.18700
N2576       N  0.63894212  0.78334787  0.54679587    -0.88000
H2577       H  0.52920691  0.73088754  0.57626950     0.36100
H2578       H  0.55138396  0.71865107  0.60036115     0.41200
H2579       H  0.64819950  0.77565585  0.52950140     0.40800
H2580       H  0.65292920  0.78096928  0.56276935     0.35700
C2581       C  0.35904442  0.83489273  0.74283245    -0.26000
C2582       C  0.36454385  0.84107580  0.77007475    -0.14100
C2583       C  0.36126107  0.82032552  0.78951391     0.36500
C2584       C  0.35231137  0.79430100  0.78158080    -0.25500
C2585       C  0.34750999  0.78792426  0.75417704    -0.14700
C2586       C  0.35096824  0.80874681  0.73475254     0.37600
N2587       N  0.34612398  0.80352226  0.70663676    -0.89000
H2588       H  0.36135403  0.85044341  0.72758119     0.18700
H2589       H  0.35029316  0.77866282  0.79685447     0.18700
N2590       N  0.36828295  0.82517144  0.81720692    -0.88000
H2591       H  0.36399188  0.80752760  0.69619947     0.36100
H2592       H  0.33102733  0.81707175  0.69964987     0.41200
H2593       H  0.38361664  0.81130259  0.82291494     0.40800
H2594       H  0.35120436  0.82130223  0.82890949     0.35700
C2595       C  0.31498384  0.88053288  0.79127712    -0.26000
C2596       C  0.33817814  0.88307590  0.80764178    -0.14100
C2597       C  0.33653516  0.88143213  0.83596749     0.36500
C2598       C  0.31167645  0.87499955  0.84742040    -0.25500
C2599       C  0.28880800  0.87073306  0.83095806    -0.14700
C2600       C  0.29002276  0.87443866  0.80274685     0.37600
N2601       N  0.26635917  0.87067791  0.78587070    -0.89000
H2602       H  0.31662569  0.88245601  0.76949974     0.18700
H2603       H  0.31029001  0.87233176  0.86912294     0.18700
N2604       N  0.36019432  0.88534986  0.85280470    -0.88000
H2605       H  0.26118925  0.85023028  0.78702544     0.36100
H2606       H  0.27080262  0.87459470  0.76560466     0.41200
H2607       H  0.37426655  0.86989312  0.84863719     0.40800
H2608       H  0.35532294  0.88348860  0.87325281     0.35700
C2609       C  0.43180324  0.84233443  0.75795651    -0.26000
C2610       C  0.41647904  0.86476197  0.74847663    -0.14100
C2611       C  0.41827008  0.87227396  0.72090332     0.36500
C2612       C  0.43535066  0.85742657  0.70359803    -0.25500
C2613       C  0.45142636  0.83563026  0.71337649    -0.14700
C2614       C  0.44947256  0.82803006  0.74076466     0.37600
N2615       N  0.46519045  0.80550504  0.75103843    -0.89000
H2616       H  0.43028190  0.83611275  0.77893504     0.18700
H2617       H  0.43673392  0.86339109  0.68254619     0.18700
N2618       N  0.40290230  0.89473863  0.70993058    -0.88000
H2619       H  0.45179118  0.79130375  0.75886040     0.36100
H2620       H  0.47738748  0.81241527  0.76696875     0.41200
H2621       H  0.38230445  0.89170633  0.71363500     0.40800
H2622       H  0.40882230  0.91230916  0.71994295     0.35700
C2623       C  0.38887913  0.94096198  0.83671323    -0.26000
C2624       C  0.37307833  0.93466673  0.81362699    -0.14100
C2625       C  0.35013644  0.95170771  0.80811566     0.36500
C2626       C  0.34318084  0.97293879  0.82607606    -0.25500
C2627       C  0.35631528  0.97694249  0.85139273    -0.14700
C2628       C  0.38105150  0.96165101  0.85523830     0.37600
N2629       N  0.39937575  0.96714266  0.87718761    -0.89000
H2630       H  0.40724730  0.92917743  0.84085133     0.18700
H2631       H  0.32824874  0.98739275  0.81882264     0.18700
N2632       N  0.33359251  0.94867922  0.78411688    -0.88000
H2633       H  0.38993577  0.96281443  0.89543282     0.36100
H2634       H  0.40434153  0.98765649  0.87662063     0.41200
H2635       H  0.34093207  0.93326474  0.77168729     0.40800
H2636       H  0.33482622  0.96659811  0.77285150     0.35700
C2637       C  0.45072616  0.91196269  0.77387762    -0.26000
C2638       C  0.42425563  0.92295292  0.77320037    -0.14100
C2639       C  0.42008308  0.95043270  0.76583960     0.36500
C2640       C  0.44271279  0.96688624  0.76166652    -0.25500
C2641       C  0.46902480  0.95577703  0.76300371    -0.14700
C2642       C  0.47298248  0.92791976  0.76806524     0.37600
N2643       N  0.49946409  0.91546946  0.76767598    -0.89000
H2644       H  0.45424016  0.89087006  0.77916694     0.18700
H2645       H  0.43987926  0.98828478  0.75718785     0.18700
N2646       N  0.39305927  0.96127555  0.76188298    -0.88000
H2647       H  0.51157904  0.92506430  0.78208590     0.36100
H2648       H  0.50780789  0.91877039  0.74860786     0.41200
H2649       H  0.38427467  0.95105584  0.74556611     0.40800
H2650       H  0.39361238  0.98174465  0.75636629     0.35700
C2651       C  0.64091536  0.78747149  0.73079189    -0.26000
C2652       C  0.63737081  0.78971530  0.75875160    -0.14100
C2653       C  0.64496965  0.76781269  0.77592848     0.36500
C2654       C  0.65815897  0.74518878  0.76486812    -0.25500
C2655       C  0.66422396  0.74461343  0.73730127    -0.14700
C2656       C  0.65472756  0.76533172  0.71989829     0.37600
N2657       N  0.66097304  0.76466862  0.69154253    -0.89000
H2658       H  0.63551580  0.80427311  0.71767229     0.18700
H2659       H  0.66540092  0.72898675  0.77810263     0.18700
N2660       N  0.64027975  0.76826126  0.80455471    -0.88000
H2661       H  0.65317258  0.78194863  0.68165585     0.36100
H2662       H  0.65102595  0.74807717  0.68312999     0.41200
H2663       H  0.62958800  0.78574552  0.81019600     0.40800
H2664       H  0.65922465  0.76866037  0.81436506     0.35700
C2665       C  0.68821039  0.82382616  0.81006906    -0.26000
C2666       C  0.67604329  0.82759275  0.78462412    -0.14100
C2667       C  0.69190688  0.82764263  0.76089809     0.36500
C2668       C  0.71946994  0.82208345  0.76319141    -0.25500
C2669       C  0.73162878  0.81837790  0.78851804    -0.14700
C2670       C  0.71614133  0.81963967  0.81229670     0.37600
N2671       N  0.72813003  0.81627217  0.83867655    -0.89000
H2672       H  0.67597690  0.82434993  0.82816072     0.18700
H2673       H  0.73173489  0.82177167  0.74509986     0.18700
N2674       N  0.68148852  0.83558304  0.73465911    -0.88000
H2675       H  0.74195983  0.83183169  0.84184007     0.36100
H2676       H  0.73865909  0.79772864  0.83932119     0.41200
H2677       H  0.66101057  0.84130326  0.73498075     0.40800
H2678       H  0.68382642  0.81921483  0.72151567     0.35700
C2679       C  0.58945223  0.83067080  0.71510195    -0.26000
C2680       C  0.58727144  0.82123917  0.74176877    -0.14100
C2681       C  0.56882689  0.80037391  0.74703589     0.36500
C2682       C  0.55316987  0.78957549  0.72559457    -0.25500
C2683       C  0.55638177  0.79797882  0.69840030    -0.14700
C2684       C  0.57396512  0.81990686  0.69373645     0.37600
N2685       N  0.57575932  0.83207662  0.66749175    -0.89000
H2686       H  0.60438708  0.84554851  0.71031759     0.18700
H2687       H  0.53764261  0.77516273  0.73047684     0.18700
N2688       N  0.56557533  0.79061174  0.77423315    -0.88000
H2689       H  0.59602629  0.83089555  0.66141471     0.36100
H2690       H  0.57026260  0.85256188  0.66911387     0.41200
H2691       H  0.58376362  0.78100886  0.78022357     0.40800
H2692       H  0.55063149  0.77578817  0.77485992     0.35700
C2693       C  0.63730936  0.89280750  0.82415153    -0.26000
C2694       C  0.64774165  0.88268065  0.79973534    -0.14100
C2695       C  0.66944837  0.89688737  0.78789648     0.36500
C2696       C  0.68058408  0.91985379  0.80076855    -0.25500
C2697       C  0.67069802  0.92939679  0.82551306    -0.14700
C2698       C  0.64837528  0.91576264  0.83710793     0.37600
N2699       N  0.63659272  0.92445222  0.86214872    -0.89000
H2700       H  0.62055392  0.88250893  0.83355323     0.18700
H2701       H  0.69778417  0.92979223  0.79179384     0.18700
N2702       N  0.68054048  0.88818638  0.76277869    -0.88000
H2703       H  0.61627797  0.92978387  0.85811452     0.36100
H2704       H  0.64578951  0.94197286  0.86935022     0.41200
H2705       H  0.67913849  0.90441824  0.74915198     0.40800
H2706       H  0.70122215  0.88392354  0.76601220     0.35700
C2707       C  0.59095261  0.92346122  0.74782074    -0.26000
C2708       C  0.57507505  0.93266412  0.76924098    -0.14100
C2709       C  0.56913411  0.91540788  0.79116273     0.36500
C2710       C  0.57776213  0.88846181  0.79003514    -0.25500
C2711       C  0.59380855  0.87955646  0.76869055    -0.14700
C2712       C  0.60100921  0.89719648  0.74775630     0.37600
N2713       N  0.61981979  0.88908809  0.72735092    -0.89000
H2714       H  0.59608035  0.93689088  0.73127963     0.18700
H2715       H  0.57397875  0.87494486  0.80689685     0.18700
N2716       N  0.55459108  0.92514825  0.81433025    -0.88000
H2717       H  0.63634892  0.90208498  0.72820290     0.36100
H2718       H  0.61030760  0.89210397  0.70850868     0.41200
H2719       H  0.56734026  0.93849790  0.82461480     0.40800
H2720       H  0.55089886  0.90928848  0.82783655     0.35700
C2721       C  0.71059768  0.17617421  0.72362607    -0.26000
C2722       C  0.69313423  0.16896366  0.74465300    -0.14100
C2723       C  0.67928518  0.18977289  0.75875320     0.36500
C2724       C  0.68341764  0.21696152  0.75178647    -0.25500
C2725       C  0.70121989  0.22458522  0.73107280    -0.14700
C2726       C  0.71489930  0.20357859  0.71677875     0.37600
N2727       N  0.73298169  0.20926940  0.69509566    -0.89000
H2728       H  0.72108972  0.16032724  0.71258546     0.18700
H2729       H  0.67280841  0.23238779  0.76329781     0.18700
N2730       N  0.66143207  0.18423181  0.78082304    -0.88000
H2731       H  0.74925252  0.22030055  0.70279663     0.36100
H2732       H  0.72252583  0.22101311  0.68056865     0.41200
H2733       H  0.66082217  0.16359620  0.78530336     0.40800
H2734       H  0.64180078  0.19035465  0.77489399     0.35700
C2735       C  0.72480105  0.15799471  0.80240943    -0.26000
C2736       C  0.72790814  0.13645162  0.78429104    -0.14100
C2737       C  0.75388867  0.12520154  0.77929747     0.36500
C2738       C  0.77618444  0.13574257  0.79301867    -0.25500
C2739       C  0.77292839  0.15712216  0.81128304    -0.14700
C2740       C  0.74708495  0.16854836  0.81608671     0.37600
N2741       N  0.74256868  0.18999402  0.83522480    -0.89000
H2742       H  0.70483694  0.16622783  0.80662733     0.18700
H2743       H  0.79618164  0.12680877  0.78984289     0.18700
N2744       N  0.75849108  0.10347659  0.76048490    -0.88000
H2745       H  0.73486416  0.20678976  0.82447714     0.36100
H2746       H  0.76065708  0.19613956  0.84440258     0.41200
H2747       H  0.74077155  0.09810061  0.75016411     0.40800
H2748       H  0.76505271  0.08646434  0.77161042     0.35700
C2749       C  0.65498022  0.13456900  0.69658133    -0.26000
C2750       C  0.64764194  0.13402012  0.72390322    -0.14100
C2751       C  0.62161942  0.14375485  0.73130637     0.36500
C2752       C  0.60414941  0.15460333  0.71131963    -0.25500
C2753       C  0.61119414  0.15504422  0.68376048    -0.14700
C2754       C  0.63709475  0.14459143  0.67646431     0.37600
N2755       N  0.64562461  0.14292793  0.64893543    -0.89000
H2756       H  0.67490632  0.12706819  0.69081058     0.18700
H2757       H  0.58467062  0.16276306  0.71756495     0.18700
N2758       N  0.61223585  0.14348363  0.75874400    -0.88000
H2759       H  0.64883836  0.16241795  0.64152125     0.36100
H2760       H  0.63049083  0.13353521  0.63746577     0.41200
H2761       H  0.62662416  0.13497024  0.77200090     0.40800
H2762       H  0.59532837  0.13092323  0.75942616     0.35700
C2763       C  0.70703722  0.06247629  0.84259534    -0.26000
C2764       C  0.71716052  0.03704288  0.83368194    -0.14100
C2765       C  0.71848406  0.03354482  0.80491057     0.36500
C2766       C  0.70992436  0.05473382  0.78716446    -0.25500
C2767       C  0.70077385  0.08007646  0.79648768    -0.14700
C2768       C  0.69979723  0.08397732  0.82485191     0.37600
N2769       N  0.69074880  0.10912394  0.83666469    -0.89000
H2770       H  0.70336334  0.06592713  0.86369948     0.18700
H2771       H  0.71067495  0.05134082  0.76553300     0.18700
N2772       N  0.72767188  0.00883213  0.79240957    -0.88000
H2773       H  0.67400695  0.10508136  0.84877571     0.36100
H2774       H  0.68377604  0.12288501  0.82200761     0.41200
H2775       H  0.73279527  0.99370418  0.80631549     0.40800
H2776       H  0.74532278  0.01310594  0.78172764     0.35700
C2777       C  0.61037496  0.05863935  0.78162904    -0.26000
C2778       C  0.60231437  0.04626811  0.75735575    -0.14100
C2779       C  0.61728980  0.05117012  0.73356180     0.36500
C2780       C  0.63953859  0.06865408  0.73472487    -0.25500
C2781       C  0.64722803  0.08094581  0.75904041    -0.14700
C2782       C  0.63242891  0.07596149  0.78261339     0.37600
N2783       N  0.63876592  0.08949508  0.80737759    -0.89000
H2784       H  0.59910382  0.05551793  0.80004965     0.18700
H2785       H  0.65088717  0.07286448  0.71656994     0.18700
N2786       N  0.60987180  0.03874961  0.70833455    -0.88000
H2787       H  0.64226842  0.07467933  0.82227312     0.36100
H2788       H  0.62172874  0.10096703  0.81303340     0.41200
H2789       H  0.61368102  0.01792288  0.71036100     0.40800
H2790       H  0.62231574  0.04547833  0.69275843     0.35700
C2791       C  0.38753780  0.18510765  0.79903611    -0.26000
C2792       C  0.38670828  0.17782588  0.77168023    -0.14100
C2793       C  0.36387816  0.18450674  0.75523900     0.36500
C2794       C  0.34230142  0.19845003  0.76662083    -0.25500
C2795       C  0.34228369  0.20416680  0.79421425    -0.14700
C2796       C  0.36521316  0.19810434  0.81060240     0.37600
N2797       N  0.36629054  0.20510946  0.83869034    -0.89000
H2798       H  0.40541055  0.18042048  0.81134686     0.18700
H2799       H  0.32428005  0.20255641  0.75428700     0.18700
N2800       N  0.36095598  0.17593090  0.72758754    -0.88000
H2801       H  0.35066712  0.19524550  0.84870456     0.36100
H2802       H  0.36291401  0.22602253  0.84026352     0.41200
H2803       H  0.37721264  0.16382624  0.72125877     0.40800
H2804       H  0.36023277  0.19328460  0.71537722     0.35700
C2805       C  0.40228391  0.23770221  0.70261973    -0.26000
C2806       C  0.39710666  0.25495990  0.72442685    -0.14100
C2807       C  0.40868847  0.24908281  0.74994049     0.36500
C2808       C  0.42268869  0.22447263  0.75378454    -0.25500
C2809       C  0.42333140  0.20495068  0.73311140    -0.14700
C2810       C  0.41463888  0.21238757  0.70686529     0.37600
N2811       N  0.41520460  0.19328767  0.68522027    -0.89000
H2812       H  0.39360134  0.24239083  0.68282629     0.18700
H2813       H  0.42977918  0.21898193  0.77394221     0.18700
N2814       N  0.40407996  0.26620957  0.77273647    -0.88000
H2815       H  0.42630006  0.20170188  0.66943737     0.36100
H2816       H  0.39531128  0.19051534  0.67819584     0.41200
H2817       H  0.38317421  0.26704881  0.77607378     0.40800
H2818       H  0.41062901  0.28568190  0.76789591     0.35700
C2819       C  0.48586803  0.17796087  0.71569394    -0.26000
C2820       C  0.46325945  0.16250364  0.70884985    -0.14100
C2821       C  0.46104186  0.15310019  0.68178787     0.36500
C2822       C  0.48008145  0.16126705  0.66220686    -0.25500
C2823       C  0.50201526  0.17839508  0.66847849    -0.14700
C2824       C  0.50559102  0.18520196  0.69660764     0.37600
N2825       N  0.52895510  0.19899977  0.70727406    -0.89000
H2826       H  0.48843337  0.18442726  0.73649356     0.18700
H2827       H  0.47749151  0.15386174  0.64181926     0.18700
N2828       N  0.43891541  0.13654717  0.67288919    -0.88000
H2829       H  0.52232336  0.21729096  0.71571548     0.36100
H2830       H  0.54322491  0.20366538  0.69275449     0.41200
H2831       H  0.42494387  0.13349201  0.68823661     0.40800
H2832       H  0.44702826  0.11755517  0.66781607     0.35700
C2833       C  0.37831965  0.11182936  0.78520176    -0.26000
C2834       C  0.40616429  0.11854658  0.78503618    -0.14100
C2835       C  0.42282173  0.10781194  0.80617275     0.36500
C2836       C  0.41185023  0.09070513  0.82634707    -0.25500
C2837       C  0.38418812  0.08384909  0.82634565    -0.14700
C2838       C  0.36732678  0.09447955  0.80534293     0.37600
N2839       N  0.33922193  0.08706780  0.80420196    -0.89000
H2840       H  0.36512797  0.11989732  0.76929959     0.18700
H2841       H  0.42508334  0.08272866  0.84225811     0.18700
N2842       N  0.45089625  0.11481774  0.80775306    -0.88000
H2843       H  0.32950581  0.09611187  0.78744971     0.36100
H2844       H  0.32982184  0.09495064  0.82137462     0.41200
H2845       H  0.46245977  0.09685371  0.80752655     0.40800
H2846       H  0.45435193  0.12430128  0.82632252     0.35700
C2847       C  0.46376192  0.06278080  0.73872993    -0.26000
C2848       C  0.48994083  0.06657625  0.74910098    -0.14100
C2849       C  0.49939743  0.09222582  0.75625842     0.36500
C2850       C  0.48184509  0.11425728  0.75297385    -0.25500
C2851       C  0.45522210  0.11037487  0.74369782    -0.14700
C2852       C  0.44599643  0.08462902  0.73624399     0.37600
N2853       N  0.41904248  0.08017981  0.72605184    -0.89000
H2854       H  0.45696969  0.04268776  0.73328848     0.18700
H2855       H  0.48841982  0.13427949  0.75887778     0.18700
N2856       N  0.52662280  0.09568511  0.76653507    -0.88000
H2857       H  0.41583972  0.09225058  0.70887655     0.36100
H2858       H  0.40503005  0.08599124  0.74066541     0.41200
H2859       H  0.52796683  0.08626922  0.78550297     0.40800
H2860       H  0.53046407  0.11621419  0.76977922     0.35700
C2861       C  0.69900620  0.49817397  0.30580193    -0.26000
C2862       C  0.70852929  0.50896593  0.28143279    -0.14100
C2863       C  0.73611327  0.51615570  0.27970035     0.36500
C2864       C  0.75365372  0.51117248  0.30140256    -0.25500
C2865       C  0.74445703  0.50032882  0.32574019    -0.14700
C2866       C  0.71647289  0.49427399  0.32828586     0.37600
N2867       N  0.70519402  0.48383096  0.35280823    -0.89000
H2868       H  0.67797386  0.49214494  0.30710078     0.18700
H2869       H  0.77492000  0.51613136  0.29944682     0.18700
N2870       N  0.74683882  0.52937568  0.25647630    -0.88000
H2871       H  0.68891876  0.49650440  0.35814930     0.36100
H2872       H  0.71920507  0.48502093  0.36871022     0.41200
H2873       H  0.73567132  0.54730840  0.25331921     0.40800
H2874       H  0.74508109  0.51681374  0.23967741     0.35700
C2875       C  0.57377758  0.53785727  0.25712038    -0.26000
C2876       C  0.55953839  0.55544803  0.23951092    -0.14100
C2877       C  0.56736828  0.55702051  0.21215810     0.36500
C2878       C  0.59062623  0.54262558  0.20376663    -0.25500
C2879       C  0.60603285  0.52610062  0.22181720    -0.14700
C2880       C  0.59607720  0.52242120  0.24831188     0.37600
N2881       N  0.60812259  0.50262050  0.26626000    -0.89000
H2882       H  0.56756248  0.53618848  0.27802539     0.18700
H2883       H  0.59616644  0.54401439  0.18270423     0.18700
N2884       N  0.55233991  0.57286060  0.19237998    -0.88000
H2885       H  0.59317626  0.48871109  0.27132331     0.36100
H2886       H  0.61408229  0.51241082  0.28403739     0.41200
H2887       H  0.53552555  0.58263307  0.20081104     0.40800
H2888       H  0.56506035  0.58793099  0.18510111     0.35700
C2889       C  0.58860864  0.39317153  0.19226932    -0.26000
C2890       C  0.58981585  0.41419595  0.21132219    -0.14100
C2891       C  0.57668473  0.41122339  0.23631229     0.36500
C2892       C  0.56140688  0.38801427  0.24109754    -0.25500
C2893       C  0.55923658  0.36753621  0.22163048    -0.14700
C2894       C  0.57333243  0.37000241  0.19714210     0.37600
N2895       N  0.57232828  0.34934747  0.17692298    -0.89000
H2896       H  0.59917371  0.39509318  0.17327539     0.18700
H2897       H  0.55005324  0.38657306  0.25960359     0.18700
N2898       N  0.57904408  0.43168391  0.25677040    -0.88000
H2899       H  0.55214406  0.34712724  0.17068548     0.36100
H2900       H  0.57902992  0.33109660  0.18576021     0.41200
H2901       H  0.59947104  0.43227509  0.26282525     0.40800
H2902       H  0.56800924  0.42644942  0.27391370     0.35700
C2903       C  0.82842957  0.79273811  0.99756638    -0.26000
C2904       C  0.85373809  0.79445514  0.98493927    -0.14100
C2905       C  0.86128700  0.81916025  0.97279308     0.36500
C2906       C  0.84352738  0.84165771  0.97400212    -0.25500
C2907       C  0.81843539  0.84014710  0.98707735    -0.14700
C2908       C  0.81066041  0.81536173  0.99869070     0.37600
N2909       N  0.78467652  0.81333545  0.01140850    -0.89000
H2910       H  0.82264985  0.77363486  0.00654925     0.18700
H2911       H  0.84960330  0.86060219  0.96508323     0.18700
N2912       N  0.88647096  0.82197912  0.95869280    -0.88000
H2913       H  0.78193782  0.79372330  0.01889674     0.36100
H2914       H  0.76970902  0.81664124  0.99649880     0.41200
H2915       H  0.89765241  0.80382210  0.95857377     0.40800
H2916       H  0.89816231  0.83603737  0.96926274     0.35700
C2917       C  0.99312511  0.72211405  0.93840347    -0.26000
C2918       C  0.97555939  0.70034631  0.93457340    -0.14100
C2919       C  0.97614209  0.68576644  0.91005126     0.36500
C2920       C  0.99221756  0.69509076  0.88890722    -0.25500
C2921       C  0.00844914  0.71780847  0.89242135    -0.14700
C2922       C  0.00977458  0.73076184  0.91773093     0.37600
N2923       N  0.02691414  0.75353654  0.92230598    -0.89000
H2924       H  0.99298536  0.73366315  0.95693810     0.18700
H2925       H  0.99179845  0.68495021  0.86950190     0.18700
N2926       N  0.96005570  0.66193507  0.90663155    -0.88000
H2927       H  0.03996667  0.74857836  0.93850054     0.36100
H2928       H  0.01496372  0.76994609  0.92863450     0.41200
H2929       H  0.96727212  0.64741832  0.92054326     0.40800
H2930       H  0.96277514  0.65371191  0.88737663     0.35700
C2931       C  0.95134321  0.75676323  0.03094660    -0.26000
C2932       C  0.94249063  0.72964845  0.03372741    -0.14100
C2933       C  0.95902886  0.71275279  0.05124323     0.36500
C2934       C  0.98027190  0.72385361  0.06720715    -0.25500
C2935       C  0.98757589  0.75123787  0.06534661    -0.14700
C2936       C  0.97331184  0.76753276  0.04607676     0.37600
N2937       N  0.98082995  0.79508869  0.04081883    -0.89000
H2938       H  0.94239003  0.76980589  0.01563026     0.18700
H2939       H  0.99121971  0.71078037  0.08142187     0.18700
N2940       N  0.95600182  0.68394726  0.05260400    -0.88000
H2941       H  0.98636363  0.79634399  0.02050118     0.36100
H2942       H  0.99813234  0.80031627  0.05193885     0.41200
H2943       H  0.95790109  0.67571863  0.03329899     0.40800
H2944       H  0.93712885  0.67927091  0.06040948     0.35700
C2945       C  0.85804975  0.19335148  0.02057255    -0.26000
C2946       C  0.84154285  0.21672147  0.02302718    -0.14100
C2947       C  0.81378666  0.21317827  0.02966257     0.36500
C2948       C  0.80327614  0.18671120  0.03217128    -0.25500
C2949       C  0.81963170  0.16326555  0.02900606    -0.14700
C2950       C  0.84767561  0.16695341  0.02354148     0.37600
N2951       N  0.86656577  0.14462751  0.02184763    -0.89000
H2952       H  0.87943466  0.19568109  0.01627713     0.18700
H2953       H  0.78192170  0.18437786  0.03659151     0.18700
N2954       N  0.79577247  0.23580277  0.03458934    -0.88000
H2955       H  0.87382320  0.14399686  0.00207121     0.36100
H2956       H  0.85702932  0.12637500  0.02561106     0.41200
H2957       H  0.80593807  0.25416158  0.03356452     0.40800
H2958       H  0.78909315  0.23412005  0.05452019     0.35700
C2959       C  0.97003695  0.24827615  0.95749918    -0.26000
C2960       C  0.96162886  0.27495039  0.95093341    -0.14100
C2961       C  0.98132103  0.29264619  0.94014140     0.36500
C2962       C  0.00806329  0.28297384  0.93560894    -0.25500
C2963       C  0.01621057  0.25637257  0.94260721    -0.14700
C2964       C  0.99707266  0.23940428  0.95506865     0.37600
N2965       N  0.00417935  0.21250522  0.96439247    -0.89000
H2966       H  0.95571796  0.23485898  0.96700296     0.18700
H2967       H  0.02228017  0.29602900  0.92547237     0.18700
N2968       N  0.97528295  0.32068073  0.93432963    -0.88000
H2969       H  0.00022194  0.21168926  0.98511054     0.36100
H2970       H  0.02503101  0.20870137  0.96265999     0.41200
H2971       H  0.95509262  0.32566163  0.93840108     0.40800
H2972       H  0.97772225  0.32362557  0.91354654     0.35700
C2973       C  0.95608691  0.28986688  0.04940284    -0.26000
C2974       C  0.92762627  0.29111867  0.05470192    -0.14100
C2975       C  0.92151230  0.28689056  0.08270379     0.36500
C2976       C  0.94298757  0.28308160  0.10230028    -0.25500
C2977       C  0.97047458  0.27712499  0.09535384    -0.14700
C2978       C  0.97533502  0.27745166  0.06735881     0.37600
N2979       N  0.99889088  0.26380014  0.05671374    -0.89000
H2980       H  0.96428645  0.29815947  0.03117000     0.18700
H2981       H  0.93735457  0.28362795  0.12319271     0.18700
N2982       N  0.89414884  0.28554332  0.09246996    -0.88000
H2983       H  0.99894536  0.26522520  0.03559286     0.36100
H2984       H  0.99736882  0.24320688  0.06145656     0.41200
H2985       H  0.87975072  0.28838236  0.07708853     0.40800
H2986       H  0.89125159  0.30099549  0.10659520     0.35700
C2987       C  0.70512580  0.49912690  0.67867798    -0.26000
C2988       C  0.71755418  0.48729357  0.70215529    -0.14100
C2989       C  0.74503648  0.47789130  0.69871103     0.36500
C2990       C  0.75778403  0.47867499  0.67275752    -0.25500
C2991       C  0.74514397  0.49003172  0.64945445    -0.14700
C2992       C  0.71846884  0.50088356  0.65297251     0.37600
N2993       N  0.70474238  0.51371177  0.63042900    -0.89000
H2994       H  0.68452633  0.50691302  0.68013877     0.18700
H2995       H  0.77829665  0.47070751  0.67077073     0.18700
N2996       N  0.76066312  0.46829262  0.72162207    -0.88000
H2997       H  0.68565969  0.52117473  0.63612645     0.36100
H2998       H  0.70124508  0.49896974  0.61578932     0.41200
H2999       H  0.76329590  0.48471423  0.73464601     0.40800
H3000       H  0.78011380  0.46193287  0.71586290     0.35700
C3001       C  0.60819794  0.42536269  0.76850708    -0.26000
C3002       C  0.60557904  0.42695253  0.79656876    -0.14100
C3003       C  0.58376192  0.41456672  0.80959828     0.36500
C3004       C  0.56478511  0.40078852  0.79382442    -0.25500
C3005       C  0.56664260  0.40059512  0.76544839    -0.14700
C3006       C  0.58814614  0.41376676  0.75272580     0.37600
N3007       N  0.58886258  0.41706976  0.72395145    -0.89000
H3008       H  0.62488757  0.43542336  0.75874198     0.18700
H3009       H  0.54836320  0.39049024  0.80376347     0.18700
N3010       N  0.57999885  0.41618762  0.83832845    -0.88000
H3011       H  0.60753469  0.40939826  0.71725345     0.36100
H3012       H  0.58823032  0.43783463  0.71959557     0.41200
H3013       H  0.59579285  0.42675969  0.84758352     0.40800
H3014       H  0.58105168  0.39643727  0.84607760     0.35700
C3015       C  0.58055653  0.53245403  0.75115726    -0.26000
C3016       C  0.56994586  0.55300651  0.76844165    -0.14100
C3017       C  0.58858828  0.55993029  0.78997440     0.36500
C3018       C  0.61486415  0.54645701  0.79377997    -0.25500
C3019       C  0.62584045  0.52628433  0.77618864    -0.14700
C3020       C  0.60721914  0.51939527  0.75460872     0.37600
N3021       N  0.61541151  0.49905879  0.73557195    -0.89000
H3022       H  0.56818735  0.52709316  0.73377392     0.18700
H3023       H  0.62684891  0.55194499  0.81136006     0.18700
N3024       N  0.58156516  0.58078206  0.80895685    -0.88000
H3025       H  0.60046986  0.49661002  0.72059708     0.36100
H3026       H  0.61694492  0.48062212  0.74591716     0.41200
H3027       H  0.56197427  0.58851743  0.80532545     0.40800
H3028       H  0.59500258  0.59673700  0.80617329     0.35700
C3029       C  0.73934581  0.34405988  0.83299646    -0.26000
C3030       C  0.76618669  0.35261947  0.83086053    -0.14100
C3031       C  0.78120581  0.34737296  0.80749749     0.36500
C3032       C  0.76917651  0.33262667  0.78685310    -0.25500
C3033       C  0.74208668  0.32396999  0.78866594    -0.14700
C3034       C  0.72692553  0.32985233  0.81203715     0.37600
N3035       N  0.69915486  0.32156309  0.81443379    -0.89000
H3036       H  0.72840145  0.34799823  0.85148210     0.18700
H3037       H  0.78088897  0.32903638  0.76875564     0.18700
N3038       N  0.80842575  0.35690328  0.80404769    -0.88000
H3039       H  0.69095668  0.32819267  0.83271363     0.36100
H3040       H  0.69915665  0.30037587  0.81499715     0.41200
H3041       H  0.81455229  0.36869844  0.82043053     0.40800
H3042       H  0.80818044  0.36987429  0.78724874     0.35700
C3043       C  0.79212029  0.29987258  0.86160792    -0.26000
C3044       C  0.80814034  0.32282940  0.86537092    -0.14100
C3045       C  0.83666338  0.32008961  0.86590906     0.36500
C3046       C  0.84864188  0.29434798  0.86308994    -0.25500
C3047       C  0.83277691  0.27107081  0.85980055    -0.14700
C3048       C  0.80408510  0.27391023  0.85912985     0.37600
N3049       N  0.78717319  0.25051250  0.85679236    -0.89000
H3050       H  0.77018480  0.30206051  0.86186716     0.18700
H3051       H  0.87062496  0.29256445  0.86339416     0.18700
N3052       N  0.85336410  0.34347231  0.86971573    -0.88000
H3053       H  0.76661213  0.25623555  0.85622056     0.36100
H3054       H  0.79010065  0.23887834  0.87435996     0.41200
H3055       H  0.85052203  0.35612152  0.85287445     0.40800
H3056       H  0.87396821  0.33792615  0.87030213     0.35700
C3057       C  0.75970688  0.42475625  0.82873556    -0.26000
C3058       C  0.75087698  0.40920344  0.85128071    -0.14100
C3059       C  0.72306229  0.41404431  0.85809016     0.36500
C3060       C  0.70615402  0.43322822  0.84321187    -0.25500
C3061       C  0.71431255  0.44804957  0.81969097    -0.14700
C3062       C  0.74252310  0.44404995  0.81386227     0.37600
N3063       N  0.75455765  0.46019571  0.79331340    -0.89000
H3064       H  0.78066273  0.42225132  0.82263647     0.18700
H3065       H  0.68603654  0.43668456  0.85106930     0.18700
N3066       N  0.71067533  0.39963943  0.87993328    -0.88000
H3067       H  0.76369422  0.44708620  0.77943909     0.36100
H3068       H  0.76995725  0.47151135  0.80236443     0.41200
H3069       H  0.72419575  0.38564504  0.88876044     0.40800
H3070       H  0.69482957  0.38832289  0.87167713     0.35700
C3071       C  0.83888268  0.36250670  0.93010264    -0.26000
C3072       C  0.81445070  0.35043259  0.92134769    -0.14100
C3073       C  0.80845691  0.32526970  0.93444258     0.36500
C3074       C  0.82627478  0.31359305  0.95479968    -0.25500
C3075       C  0.85117357  0.32519303  0.96335540    -0.14700
C3076       C  0.85687600  0.35058369  0.95012702     0.37600
N3077       N  0.88107553  0.36521506  0.95629300    -0.89000
H3078       H  0.84469844  0.38132353  0.92055917     0.18700
H3079       H  0.81974649  0.29526101  0.96423669     0.18700
N3080       N  0.78415032  0.31071528  0.92793548    -0.88000
H3081       H  0.89802904  0.35311325  0.95194662     0.36100
H3082       H  0.88135581  0.37031887  0.97674850     0.41200
H3083       H  0.77206346  0.32110634  0.91372065     0.40800
H3084       H  0.77259926  0.30965794  0.94550775     0.35700
C3085       C  0.79228841  0.43056287  0.90770714    -0.26000
C3086       C  0.77833271  0.40661495  0.91209888    -0.14100
C3087       C  0.76296092  0.40255723  0.93564908     0.36500
C3088       C  0.76217768  0.42309995  0.95468975    -0.25500
C3089       C  0.77711521  0.44658931  0.95078133    -0.14700
C3090       C  0.79232365  0.45061032  0.92727890     0.37600
N3091       N  0.80737179  0.47504463  0.92331315    -0.89000
H3092       H  0.80397380  0.43311501  0.88942598     0.18700
H3093       H  0.75055421  0.42040852  0.97297432     0.18700
N3094       N  0.74841209  0.37807555  0.94108295    -0.88000
H3095       H  0.81608561  0.47525446  0.90412377     0.36100
H3096       H  0.82360249  0.47477096  0.93716532     0.41200
H3097       H  0.75015012  0.36416866  0.92537022     0.40800
H3098       H  0.72776065  0.38322302  0.94226024     0.35700
C3099       C  0.75583219  0.67667914  0.82603359    -0.26000
C3100       C  0.77125034  0.65254542  0.82829736    -0.14100
C3101       C  0.77296108  0.63552196  0.80532057     0.36500
C3102       C  0.75972733  0.64321991  0.78081446    -0.25500
C3103       C  0.74577475  0.66812978  0.77826247    -0.14700
C3104       C  0.74376847  0.68499922  0.80124397     0.37600
N3105       N  0.72943924  0.71058382  0.79931745    -0.89000
H3106       H  0.75295780  0.68909345  0.84375235     0.18700
H3107       H  0.76147128  0.63033573  0.76320919     0.18700
N3108       N  0.78856843  0.61070860  0.80666938    -0.88000
H3109       H  0.73017141  0.72078602  0.81780189     0.36100
H3110       H  0.70898670  0.70652926  0.79533999     0.41200
H3111       H  0.80894385  0.61570527  0.80953850     0.40800
H3112       H  0.78740024  0.60032328  0.78831155     0.35700
C3113       C  0.79537274  0.70894762  0.86981840    -0.26000
C3114       C  0.81058794  0.68683798  0.86078114    -0.14100
C3115       C  0.82740354  0.68947322  0.83821186     0.36500
C3116       C  0.82546544  0.71286021  0.82243844    -0.25500
C3117       C  0.80696293  0.73364428  0.82908824    -0.14700
C3118       C  0.79277672  0.73230104  0.85389983     0.37600
N3119       N  0.77433817  0.75358930  0.86198335    -0.89000
H3120       H  0.78261971  0.70649254  0.88734785     0.18700
H3121       H  0.83786341  0.71440232  0.80454245     0.18700
N3122       N  0.84587693  0.66824282  0.83058150    -0.88000
H3123       H  0.76652870  0.74967042  0.88116305     0.36100
H3124       H  0.75778753  0.75340972  0.84851972     0.41200
H3125       H  0.83490204  0.65064725  0.82714176     0.40800
H3126       H  0.85920630  0.66457120  0.84687087     0.35700
C3127       C  0.73283001  0.60571470  0.85817433    -0.26000
C3128       C  0.76066275  0.60012742  0.86192508    -0.14100
C3129       C  0.77105297  0.57426943  0.85544264     0.36500
C3130       C  0.75363685  0.55499496  0.84395369    -0.25500
C3131       C  0.72560728  0.56045994  0.83971091    -0.14700
C3132       C  0.71516411  0.58601282  0.84781822     0.37600
N3133       N  0.68662604  0.59196252  0.84627704    -0.89000
H3134       H  0.72472814  0.62552871  0.86344314     0.18700
H3135       H  0.76235695  0.53579598  0.83777789     0.18700
N3136       N  0.79938470  0.56785402  0.85997060    -0.88000
H3137       H  0.68370184  0.60916453  0.83408053     0.36100
H3138       H  0.67995819  0.59665648  0.86572843     0.41200
H3139       H  0.81080964  0.58041089  0.84757399     0.40800
H3140       H  0.80381283  0.54791586  0.85422378     0.35700
C3141       C  0.81698038  0.67779276  0.93454511    -0.26000
C3142       C  0.82703344  0.65988214  0.91488036    -0.14100
C3143       C  0.85495619  0.65271039  0.91635102     0.36500
C3144       C  0.87182156  0.66397423  0.93657251    -0.25500
C3145       C  0.86273577  0.68387787  0.95517711    -0.14700
C3146       C  0.83394195  0.68943827  0.95472509     0.37600
N3147       N  0.82048186  0.70542834  0.97497572    -0.89000
H3148       H  0.79541258  0.68264720  0.93445471     0.18700
H3149       H  0.89228532  0.65597266  0.93782484     0.18700
N3150       N  0.86727105  0.63420710  0.89753490    -0.88000
H3151       H  0.81130206  0.72225119  0.96546874     0.36100
H3152       H  0.83375117  0.71257819  0.98972678     0.41200
H3153       H  0.85334081  0.62729472  0.88315649     0.40800
H3154       H  0.87426588  0.61723877  0.90846322     0.35700
C3155       C  0.81447092  0.58720529  0.92090260    -0.26000
C3156       C  0.79260888  0.60527295  0.91684704    -0.14100
C3157       C  0.76835382  0.60194750  0.93138555     0.36500
C3158       C  0.76618678  0.57976466  0.94877853    -0.25500
C3159       C  0.78776022  0.56106193  0.95240204    -0.14700
C3160       C  0.81234242  0.56497547  0.93846763     0.37600
N3161       N  0.83467926  0.54599872  0.94140586    -0.89000
H3162       H  0.83270017  0.58955555  0.90914797     0.18700
H3163       H  0.74743491  0.57734161  0.95975338     0.18700
N3164       N  0.74546829  0.62037540  0.92880906    -0.88000
H3165       H  0.85132108  0.55223113  0.93012085     0.36100
H3166       H  0.82847079  0.52762498  0.93310779     0.41200
H3167       H  0.74967195  0.63676296  0.91620203     0.40800
H3168       H  0.74195551  0.62864649  0.94791248     0.35700
C3169       C  0.72812711  0.66271305  0.17709378    -0.26000
C3170       C  0.75555049  0.65554305  0.18068294    -0.14100
C3171       C  0.77082372  0.66612720  0.20246820     0.36500
C3172       C  0.75805776  0.68327251  0.22055531    -0.25500
C3173       C  0.73005432  0.68820695  0.21856672    -0.14700
C3174       C  0.71511279  0.67919381  0.19583266     0.37600
N3175       N  0.68670994  0.68560478  0.19182593    -0.89000
H3176       H  0.71687274  0.65575058  0.15956410     0.18700
H3177       H  0.76948338  0.68978452  0.23821824     0.18700
N3178       N  0.79866283  0.65839680  0.20807866    -0.88000
H3179       H  0.68466293  0.69576317  0.17327735     0.36100
H3180       H  0.67992536  0.69934948  0.20636624     0.41200
H3181       H  0.80559655  0.64298930  0.19541508     0.40800
H3182       H  0.81067240  0.67540010  0.20498929     0.35700
C3183       C  0.77484504  0.69841404  0.13725298    -0.26000
C3184       C  0.79601342  0.68035638  0.14452038    -0.14100
C3185       C  0.82269603  0.68993683  0.14811564     0.36500
C3186       C  0.82718885  0.71765423  0.14580014    -0.25500
C3187       C  0.80548935  0.73582570  0.14094396    -0.14700
C3188       C  0.77919051  0.72613266  0.13555684     0.37600
N3189       N  0.75645436  0.74383839  0.12917273    -0.89000
H3190       H  0.75470240  0.69078806  0.13306472     0.18700
H3191       H  0.84728560  0.72523327  0.15045362     0.18700
N3192       N  0.84517198  0.67253893  0.15590734    -0.88000
H3193       H  0.74899645  0.73831980  0.11010807     0.36100
H3194       H  0.76255291  0.76391798  0.12717904     0.41200
H3195       H  0.83911846  0.65256484  0.15868180     0.40800
H3196       H  0.85915155  0.67265380  0.14015442     0.35700
C3197       C  0.73658274  0.58499511  0.17729812    -0.26000
C3198       C  0.73756744  0.60014381  0.15334788    -0.14100
C3199       C  0.71645896  0.59757821  0.13382437     0.36500
C3200       C  0.69587979  0.57843330  0.13787033    -0.25500
C3201       C  0.69573566  0.56237954  0.16126795    -0.14700
C3202       C  0.71592948  0.56624074  0.18133998     0.37600
N3203       N  0.71612502  0.55078033  0.20578939    -0.89000
H3204       H  0.75252453  0.58698959  0.19246777     0.18700
H3205       H  0.68019147  0.57563932  0.12261151     0.18700
N3206       N  0.71614245  0.61422414  0.10990025    -0.88000
H3207       H  0.71810985  0.53030905  0.20082977     0.36100
H3208       H  0.69751974  0.55387758  0.21537497     0.41200
H3209       H  0.71367439  0.63438428  0.11589704     0.40800
H3210       H  0.69940836  0.60974364  0.09755281     0.35700
C3211       C  0.80476739  0.66153110  0.08583097    -0.26000
C3212       C  0.81472272  0.64151865  0.10370444    -0.14100
C3213       C  0.84186261  0.63191099  0.10165052     0.36500
C3214       C  0.85877993  0.64374742  0.08246259    -0.25500
C3215       C  0.84890913  0.66451098  0.06542245    -0.14700
C3216       C  0.82173426  0.67324979  0.06691232     0.37600
N3217       N  0.81165691  0.69465012  0.04968133    -0.89000
H3218       H  0.78395549  0.66886882  0.08734340     0.18700
H3219       H  0.87965913  0.63672269  0.08070056     0.18700
N3220       N  0.85293539  0.61067889  0.11872547    -0.88000
H3221       H  0.80450437  0.71037479  0.06193902     0.36100
H3222       H  0.79518704  0.68729559  0.03850060     0.41200
H3223       H  0.83844977  0.60324508  0.13197100     0.40800
H3224       H  0.86840765  0.61897845  0.13061330     0.35700
C3225       C  0.78763076  0.54833104  0.08915600    -0.26000
C3226       C  0.77840302  0.55734395  0.06375178    -0.14100
C3227       C  0.76919414  0.58419231  0.05947270     0.36500
C3228       C  0.76905907  0.60148885  0.08136722    -0.25500
C3229       C  0.77839188  0.59253211  0.10675628    -0.14700
C3230       C  0.78760351  0.56572665  0.11103049     0.37600
N3231       N  0.79770980  0.55577640  0.13672615    -0.89000
H3232       H  0.79484437  0.52761977  0.09198097     0.18700
H3233       H  0.76218311  0.62230064  0.07845856     0.18700
N3234       N  0.76068952  0.59474466  0.03343500    -0.88000
H3235       H  0.78470909  0.54050709  0.14309191     0.36100
H3236       H  0.79723557  0.57068920  0.15161129     0.41200
H3237       H  0.76299502  0.58046752  0.01811278     0.40800
H3238       H  0.77366392  0.61058359  0.02854644     0.35700
C3239       C  0.77626277  0.31475947  0.16261844    -0.26000
C3240       C  0.79383405  0.33619422  0.16771677    -0.14100
C3241       C  0.81730967  0.33206488  0.18400125     0.36500
C3242       C  0.82142629  0.30690061  0.19668840    -0.25500
C3243       C  0.80255006  0.28624789  0.19311157    -0.14700
C3244       C  0.78018752  0.28980913  0.17544305     0.37600
N3245       N  0.76157340  0.26807521  0.17072590    -0.89000
H3246       H  0.75830767  0.31834326  0.15010164     0.18700
H3247       H  0.83921187  0.30350157  0.20950385     0.18700
N3248       N  0.83674794  0.35303764  0.18853646    -0.88000
H3249       H  0.74653847  0.27396641  0.15665118     0.36100
H3250       H  0.75160516  0.26429309  0.18888392     0.41200
H3251       H  0.83170361  0.37031581  0.17714434     0.40800
H3252       H  0.85543492  0.34604330  0.18125523     0.35700
C3253       C  0.73329769  0.34354043  0.20234173    -0.26000
C3254       C  0.75347756  0.36331393  0.20170894    -0.14100
C3255       C  0.76723221  0.37004187  0.22595915     0.36500
C3256       C  0.76101074  0.35645955  0.25014206    -0.25500
C3257       C  0.74178053  0.33571839  0.25063475    -0.14700
C3258       C  0.72737831  0.32955592  0.22651247     0.37600
N3259       N  0.70689707  0.30909004  0.22661095    -0.89000
H3260       H  0.72279277  0.33838223  0.18371684     0.18700
H3261       H  0.77190627  0.36153629  0.26857895     0.18700
N3262       N  0.78681486  0.39138192  0.22608359    -0.88000
H3263       H  0.69837538  0.30687699  0.20727552     0.36100
H3264       H  0.69122865  0.31586572  0.23911674     0.41200
H3265       H  0.80317489  0.38525239  0.21426618     0.40800
H3266       H  0.79456383  0.39438703  0.24561634     0.35700
C3267       C  0.72483617  0.41977341  0.19510049    -0.26000
C3268       C  0.72858954  0.41404340  0.16771470    -0.14100
C3269       C  0.70993332  0.42586847  0.14867666     0.36500
C3270       C  0.69244427  0.44685299  0.15703220    -0.25500
C3271       C  0.68998405  0.45330400  0.18454732    -0.14700
C3272       C  0.70340737  0.43612786  0.20363995     0.37600
N3273       N  0.69495813  0.43454221  0.23138079    -0.89000
H3274       H  0.73812323  0.41131322  0.21037171     0.18700
H3275       H  0.67927097  0.45677667  0.14217394     0.18700
N3276       N  0.70592092  0.41544193  0.12190641    -0.88000
H3277       H  0.70740976  0.42108813  0.24252020     0.36100
H3278       H  0.67545795  0.42649556  0.23160037     0.41200
H3279       H  0.71641725  0.39713686  0.11920706     0.40800
H3280       H  0.71240782  0.42987219  0.10795797     0.35700
C3281       C  0.80395013  0.34530639  0.10360438    -0.26000
C3282       C  0.80710432  0.36995735  0.11720634    -0.14100
C3283       C  0.82691397  0.38834275  0.10800970     0.36500
C3284       C  0.84208587  0.38203013  0.08499967    -0.25500
C3285       C  0.83883662  0.35743722  0.07144417    -0.14700
C3286       C  0.82004140  0.33843877  0.08138686     0.37600
N3287       N  0.81695855  0.31193723  0.06982572    -0.89000
H3288       H  0.78864113  0.33125400  0.11008590     0.18700
H3289       H  0.85735175  0.39600292  0.07815352     0.18700
N3290       N  0.83311155  0.41292977  0.12208933    -0.88000
H3291       H  0.82243245  0.29770035  0.08474413     0.36100
H3292       H  0.83017678  0.30860548  0.05383465     0.41200
H3293       H  0.82295331  0.41423110  0.14042724     0.40800
H3294       H  0.82673047  0.42923671  0.10987822     0.35700
C3295       C  0.76210130  0.40597214  0.08851455    -0.26000
C3296       C  0.76622390  0.41719368  0.11431656    -0.14100
C3297       C  0.77057959  0.44527823  0.11682871     0.36500
C3298       C  0.77127539  0.46129412  0.09352352    -0.25500
C3299       C  0.76780877  0.44989100  0.06781253    -0.14700
C3300       C  0.76293938  0.42194297  0.06516642     0.37600
N3301       N  0.75922325  0.40904914  0.03936378    -0.89000
H3302       H  0.75866422  0.38441979  0.08650253     0.18700
H3303       H  0.77515032  0.48275914  0.09544437     0.18700
N3304       N  0.77565810  0.45788035  0.14242652    -0.88000
H3305       H  0.77541377  0.39533674  0.03683497     0.36100
H3306       H  0.76005361  0.42290275  0.02339754     0.41200
H3307       H  0.79203433  0.44799509  0.15206846     0.40800
H3308       H  0.75853423  0.45600209  0.15445302     0.35700
C3309       C  0.24375361  0.21640582  0.02278743    -0.26000
C3310       C  0.21516184  0.21651381  0.02203426    -0.14100
C3311       C  0.20172482  0.19161918  0.01894887     0.36500
C3312       C  0.21705404  0.16746930  0.01579848    -0.25500
C3313       C  0.24563669  0.16736398  0.01596342    -0.14700
C3314       C  0.25912265  0.19223189  0.02008148     0.37600
N3315       N  0.28824738  0.19375368  0.02196465    -0.89000
H3316       H  0.25427209  0.23538063  0.02526387     0.18700
H3317       H  0.20663848  0.14852716  0.01298318     0.18700
N3318       N  0.17253990  0.19093113  0.01937877    -0.88000
H3319       H  0.29313760  0.20099625  0.04123989     0.36100
H3320       H  0.29747818  0.17464267  0.02063882     0.41200
H3321       H  0.16639653  0.19722572  0.03855963     0.40800
H3322       H  0.16577249  0.17108737  0.01699881     0.35700
C3323       C  0.03839465  0.30045109  0.08174820    -0.26000
C3324       C  0.04220656  0.28701641  0.10664823    -0.14100
C3325       C  0.06769141  0.29228677  0.11990532     0.36500
C3326       C  0.09024501  0.30098488  0.10489670    -0.25500
C3327       C  0.08746483  0.30861742  0.07765628    -0.14700
C3328       C  0.06052018  0.31074088  0.06705056     0.37600
N3329       N  0.05527094  0.32388962  0.04158872    -0.89000
H3330       H  0.01836242  0.30400812  0.07369441     0.18700
H3331       H  0.10988943  0.30218635  0.11488726     0.18700
N3332       N  0.07055178  0.29278192  0.14883149    -0.88000
H3333       H  0.04543849  0.31013821  0.02889804     0.36100
H3334       H  0.04191026  0.34021166  0.04482732     0.41200
H3335       H  0.05233507  0.28862864  0.15848480     0.40800
H3336       H  0.08565021  0.27880316  0.15474453     0.35700
C3337       C  0.09181582  0.25326926  0.97009027    -0.26000
C3338       C  0.08531828  0.26584109  0.94526503    -0.14100
C3339       C  0.10098309  0.28862487  0.93772971     0.36500
C3340       C  0.12205777  0.29808782  0.95500860    -0.25500
C3341       C  0.12947687  0.28490257  0.97952834    -0.14700
C3342       C  0.11344667  0.26218258  0.98689552     0.37600
N3343       N  0.11868362  0.24808472  0.01188201    -0.89000
H3344       H  0.08067211  0.23548635  0.97608582     0.18700
H3345       H  0.13191882  0.31655693  0.94926417     0.18700
N3346       N  0.09576008  0.30318701  0.91290820    -0.88000
H3347       H  0.12294741  0.22777146  0.00743338     0.36100
H3348       H  0.10095190  0.24870424  0.02332517     0.41200
H3349       H  0.07879313  0.29579906  0.90261510     0.40800
H3350       H  0.11256345  0.30015971  0.90046819     0.35700
C3351       C  0.36279968  0.49780933  0.68245772    -0.26000
C3352       C  0.34806538  0.49802333  0.70678298    -0.14100
C3353       C  0.31911720  0.49797849  0.70437317     0.36500
C3354       C  0.30617029  0.49752197  0.67865308    -0.25500
C3355       C  0.32083092  0.49793138  0.65445005    -0.14700
C3356       C  0.34962488  0.49786934  0.65656108     0.37600
N3357       N  0.36550501  0.49788011  0.63242997    -0.89000
H3358       H  0.38479725  0.49780979  0.68368376     0.18700
H3359       H  0.28416202  0.49802202  0.67750479     0.18700
N3360       N  0.30201109  0.50028978  0.72748847    -0.88000
H3361       H  0.38625087  0.49679554  0.63725581     0.36100
H3362       H  0.36219173  0.51654188  0.62288612     0.41200
H3363       H  0.30845067  0.51658223  0.73927004     0.40800
H3364       H  0.30327443  0.48241648  0.73878077     0.35700
C3365       C  0.48165247  0.45030649  0.77241111    -0.26000
C3366       C  0.46846904  0.44300048  0.79651886    -0.14100
C3367       C  0.47351173  0.41702977  0.80764861     0.36500
C3368       C  0.49080630  0.39874945  0.79423022    -0.25500
C3369       C  0.50327275  0.40616543  0.77001848    -0.14700
C3370       C  0.49897647  0.43219089  0.75925019     0.37600
N3371       N  0.51131731  0.43986072  0.73429810    -0.89000
H3372       H  0.47759479  0.46974752  0.76284885     0.18700
H3373       H  0.49428915  0.37863738  0.80257646     0.18700
N3374       N  0.46108758  0.40913855  0.83242604    -0.88000
H3375       H  0.52300596  0.45702886  0.73787475     0.36100
H3376       H  0.49584205  0.44520252  0.72049034     0.41200
H3377       H  0.47653445  0.40382357  0.84626660     0.40800
H3378       H  0.44961292  0.39186283  0.82864948     0.35700
C3379       C  0.47869407  0.56393593  0.79390574    -0.26000
C3380       C  0.49245809  0.55575074  0.77036359    -0.14100
C3381       C  0.47743045  0.53971777  0.75205840     0.36500
C3382       C  0.44982876  0.53290794  0.75704802    -0.25500
C3383       C  0.43567961  0.54100927  0.78070645    -0.14700
C3384       C  0.45143146  0.55626505  0.79967240     0.37600
N3385       N  0.44012722  0.56359567  0.82528664    -0.89000
H3386       H  0.48916237  0.57731736  0.80773109     0.18700
H3387       H  0.44004897  0.51939489  0.74292249     0.18700
N3388       N  0.49024456  0.53021360  0.72798483    -0.88000
H3389       H  0.45331148  0.57607692  0.83611034     0.36100
H3390       H  0.43849505  0.54582815  0.83670961     0.41200
H3391       H  0.49012412  0.50902404  0.72835619     0.40800
H3392       H  0.47841774  0.53665966  0.71140529     0.35700
C3393       C  0.22329475  0.80996735  0.99924544    -0.26000
C3394       C  0.19485346  0.81113271  0.00250765    -0.14100
C3395       C  0.18302304  0.83582849  0.01158087     0.36500
C3396       C  0.19977611  0.85794427  0.01799370    -0.25500
C3397       C  0.22807878  0.85649471  0.01496713    -0.14700
C3398       C  0.23997079  0.83203220  0.00550122     0.37600
N3399       N  0.26887459  0.82847751  0.00266660    -0.89000
H3400       H  0.23305879  0.79134721  0.99278297     0.18700
H3401       H  0.19072871  0.87665935  0.02523883     0.18700
N3402       N  0.15403620  0.83861474  0.01392672    -0.88000
H3403       H  0.27505013  0.81208710  0.01486514     0.36100
H3404       H  0.27936402  0.84514310  0.01004263     0.41200
H3405       H  0.14559713  0.83698676  0.99449510     0.40800
H3406       H  0.14866968  0.85787995  0.02101955     0.35700
C3407       C  0.09952720  0.72482358  0.06048247    -0.26000
C3408       C  0.10686476  0.74077704  0.03778797    -0.14100
C3409       C  0.08680223  0.76103097  0.02997737     0.36500
C3410       C  0.06315128  0.76611000  0.04586696    -0.25500
C3411       C  0.05765518  0.75177006  0.06991684    -0.14700
C3412       C  0.07615131  0.73017475  0.07658946     0.37600
N3413       N  0.07171009  0.71263595  0.09938087    -0.89000
H3414       H  0.11172144  0.70713664  0.06569912     0.18700
H3415       H  0.04934846  0.78241321  0.03976640     0.18700
N3416       N  0.08922296  0.77697092  0.00586319    -0.88000
H3417       H  0.06947317  0.69297253  0.09195745     0.36100
H3418       H  0.05350096  0.71742387  0.10898884     0.41200
H3419       H  0.09268239  0.76438449  0.98932392     0.40800
H3420       H  0.10522994  0.79033550  0.00815350     0.35700
C3421       C  0.09642567  0.73554985  0.92716722    -0.26000
C3422       C  0.09443652  0.70848274  0.93509124    -0.14100
C3423       C  0.08159682  0.68965395  0.91842799     0.36500
C3424       C  0.06963334  0.69853426  0.89431972    -0.25500
C3425       C  0.06960576  0.72616096  0.88723612    -0.14700
C3426       C  0.08375795  0.74474670  0.90354880     0.37600
N3427       N  0.08319710  0.77316995  0.89794135    -0.89000
H3428       H  0.10721206  0.74968997  0.93996721     0.18700
H3429       H  0.05859840  0.68417741  0.88198285     0.18700
N3430       N  0.07983631  0.66173834  0.92609629    -0.88000
H3431       H  0.10327907  0.77957959  0.89631146     0.36100
H3432       H  0.07448184  0.78324171  0.91433755     0.41200
H3433       H  0.07000238  0.66077468  0.94470399     0.40800
H3434       H  0.09958201  0.65395069  0.92877285     0.35700
C3435       C  0.23209164  0.70312047  0.87204985    -0.26000
C3436       C  0.25991875  0.69866647  0.87722201    -0.14100
C3437       C  0.27901114  0.71732970  0.86750369     0.36500
C3438       C  0.26983123  0.73977390  0.85273347    -0.25500
C3439       C  0.24201000  0.74478715  0.84786924    -0.14700
C3440       C  0.22283742  0.72606105  0.85737830     0.37600
N3441       N  0.19422937  0.73046396  0.85254980    -0.89000
H3442       H  0.21763209  0.68837650  0.87903163     0.18700
H3443       H  0.28478374  0.75407616  0.84581975     0.18700
N3444       N  0.30774488  0.71494995  0.87310345    -0.88000
H3445       H  0.18821491  0.74740589  0.86374630     0.36100
H3446       H  0.18314517  0.71416507  0.85994862     0.41200
H3447       H  0.31260393  0.69892246  0.88621087     0.40800
H3448       H  0.31756041  0.71132207  0.85480296     0.35700
C3449       C  0.31958685  0.65403084  0.84051175    -0.26000
C3450       C  0.29231916  0.65501715  0.84846166    -0.14100
C3451       C  0.27152616  0.65203004  0.82905003     0.36500
C3452       C  0.27815155  0.64930547  0.80185882    -0.25500
C3453       C  0.30531603  0.64913061  0.79371009    -0.14700
C3454       C  0.32638436  0.65116143  0.81318883     0.37600
N3455       N  0.35435756  0.65154823  0.80511753    -0.89000
H3456       H  0.33547476  0.65591264  0.85571700     0.18700
H3457       H  0.26192329  0.64811129  0.78687950     0.18700
N3458       N  0.24366410  0.65132777  0.83698865    -0.88000
H3459       H  0.36723455  0.65254941  0.82206971     0.36100
H3460       H  0.35723839  0.66938160  0.79408540     0.41200
H3461       H  0.23557914  0.63291092  0.83066247     0.40800
H3462       H  0.23314057  0.66686210  0.82665448     0.35700
C3463       C  0.24681709  0.69775015  0.95121850    -0.26000
C3464       C  0.24107350  0.67524116  0.93468879    -0.14100
C3465       C  0.21502833  0.66418652  0.93715682     0.36500
C3466       C  0.19546930  0.67585518  0.95475667    -0.25500
C3467       C  0.19984137  0.69991050  0.97000704    -0.14700
C3468       C  0.22745542  0.70921729  0.96955090     0.37600
N3469       N  0.23743241  0.72918908  0.98812369    -0.89000
H3470       H  0.26708768  0.70600253  0.95071077     0.18700
H3471       H  0.17684827  0.66486719  0.95682400     0.18700
N3472       N  0.20797081  0.64100987  0.92140454    -0.88000
H3473       H  0.25366250  0.72032960  0.99900584     0.36100
H3474       H  0.22307738  0.73403235  0.00265685     0.41200
H3475       H  0.19106867  0.64623058  0.90932892     0.40800
H3476       H  0.20227627  0.62559563  0.93466696     0.35700
C3477       C  0.31473178  0.57117689  0.85340442    -0.26000
C3478       C  0.34324312  0.57126051  0.85680782    -0.14100
C3479       C  0.35419821  0.59013519  0.87558547     0.36500
C3480       C  0.33670173  0.60892142  0.88890311    -0.25500
C3481       C  0.30829203  0.60955229  0.88445142    -0.14700
C3482       C  0.29748709  0.59012786  0.86655093     0.37600
N3483       N  0.26891629  0.59020494  0.86077012    -0.89000
H3484       H  0.30577785  0.55681987  0.83951537     0.18700
H3485       H  0.34559084  0.62394125  0.90210982     0.18700
N3486       N  0.38280680  0.59091884  0.88177901    -0.88000
H3487       H  0.26148062  0.57118979  0.86605298     0.36100
H3488       H  0.26621088  0.59266856  0.83988752     0.41200
H3489       H  0.39344271  0.57541450  0.87205998     0.40800
H3490       H  0.38523341  0.58704347  0.90249080     0.35700
C3491       C  0.25592879  0.59592396  0.92907190    -0.26000
C3492       C  0.27269564  0.61724982  0.93658349    -0.14100
C3493       C  0.28877618  0.61589825  0.96014446     0.36500
C3494       C  0.28815016  0.59237212  0.97587533    -0.25500
C3495       C  0.27180936  0.57063635  0.96801942    -0.14700
C3496       C  0.25518418  0.57244107  0.94468615     0.37600
N3497       N  0.23902140  0.54994074  0.93605948    -0.89000
H3498       H  0.24411588  0.59731890  0.91044915     0.18700
H3499       H  0.30065200  0.59078887  0.99405783     0.18700
N3500       N  0.30598639  0.63804655  0.96751879    -0.88000
H3501       H  0.23021131  0.55385113  0.91704601     0.36100
H3502       H  0.22284806  0.54831400  0.94944332     0.41200
H3503       H  0.32077898  0.63984079  0.95263531     0.40800
H3504       H  0.31636242  0.63374673  0.98566815     0.35700
C3505       C  0.28250649  0.31590509  0.87498478    -0.26000
C3506       C  0.26980346  0.33675829  0.85995593    -0.14100
C3507       C  0.25147704  0.33056638  0.83908842     0.36500
C3508       C  0.24797943  0.30348385  0.83188604    -0.25500
C3509       C  0.26331570  0.28248481  0.84454299    -0.14700
C3510       C  0.27994467  0.28869302  0.86719437     0.37600
N3511       N  0.29552108  0.26789370  0.88108819    -0.89000
H3512       H  0.29657658  0.32112762  0.89106217     0.18700
H3513       H  0.23445674  0.29903930  0.81506928     0.18700
N3514       N  0.23796456  0.35204144  0.82418748    -0.88000
H3515       H  0.30536155  0.27584378  0.89809538     0.36100
H3516       H  0.31091477  0.26144842  0.86809299     0.41200
H3517       H  0.22507264  0.36222773  0.83750799     0.40800
H3518       H  0.22561393  0.34416386  0.80885210     0.35700
C3519       C  0.31608025  0.33962264  0.81814797    -0.26000
C3520       C  0.30396934  0.36564203  0.81849084    -0.14100
C3521       C  0.29962897  0.37917780  0.79344255     0.36500
C3522       C  0.30729063  0.36640676  0.76894635    -0.25500
C3523       C  0.31816181  0.33982829  0.76866929    -0.14700
C3524       C  0.32278616  0.32650746  0.79374065     0.37600
N3525       N  0.33503915  0.29989570  0.79439691    -0.89000
H3526       H  0.32051785  0.32941621  0.83714680     0.18700
H3527       H  0.30383611  0.37688461  0.74987217     0.18700
N3528       N  0.28678940  0.40552661  0.79283437    -0.88000
H3529       H  0.33661663  0.29259061  0.81426048     0.36100
H3530       H  0.35487771  0.30193850  0.78749136     0.41200
H3531       H  0.26698801  0.40341661  0.79990354     0.40800
H3532       H  0.28509741  0.41279004  0.77297122     0.35700
C3533       C  0.22865505  0.37138790  0.90429083    -0.26000
C3534       C  0.25692398  0.37215621  0.90818577    -0.14100
C3535       C  0.26776676  0.36517184  0.93395892     0.36500
C3536       C  0.25027267  0.35615177  0.95469237    -0.25500
C3537       C  0.22190007  0.35441989  0.95050691    -0.14700
C3538       C  0.21107247  0.36339560  0.92519934     0.37600
N3539       N  0.18213988  0.36498348  0.92095421    -0.89000
H3540       H  0.22017871  0.37754814  0.88485276     0.18700
H3541       H  0.25895698  0.34987147  0.97399180     0.18700
N3542       N  0.29650055  0.36714336  0.93898530    -0.88000
H3543       H  0.17743452  0.37206514  0.90145350     0.36100
H3544       H  0.17442205  0.37941790  0.93437692     0.41200
H3545       H  0.30639898  0.35314777  0.92656840     0.40800
H3546       H  0.30127164  0.36160951  0.95894978     0.35700
C3547       C  0.30947131  0.45000794  0.83690352    -0.26000
C3548       C  0.31924228  0.42376576  0.84326641    -0.14100
C3549       C  0.34536209  0.41629141  0.83436083     0.36500
C3550       C  0.36101694  0.43510976  0.82006934    -0.25500
C3551       C  0.35346976  0.46263857  0.81723172    -0.14700
C3552       C  0.32575550  0.46899438  0.82293232     0.37600
N3553       N  0.31364081  0.49394278  0.81322472    -0.89000
H3554       H  0.28863705  0.45528173  0.84174671     0.18700
H3555       H  0.37791100  0.42725224  0.80920640     0.18700
N3556       N  0.35594782  0.38940549  0.83959532    -0.88000
H3557       H  0.29331562  0.49552040  0.81903098     0.36100
H3558       H  0.31355477  0.49340139  0.79210541     0.41200
H3559       H  0.35781650  0.38702928  0.86057201     0.40800
H3560       H  0.37551436  0.38709165  0.83181965     0.35700
C3561       C  0.26202473  0.43769202  0.90804382    -0.26000
C3562       C  0.28732748  0.42658508  0.90106686    -0.14100
C3563       C  0.31056141  0.43323761  0.91641509     0.36500
C3564       C  0.30764966  0.44952481  0.93961690    -0.25500
C3565       C  0.28195965  0.45946099  0.94763655    -0.14700
C3566       C  0.25909564  0.45448466  0.93071753     0.37600
N3567       N  0.23294296  0.46639199  0.93648506    -0.89000
H3568       H  0.24426941  0.43266357  0.89597515     0.18700
H3569       H  0.32546170  0.45382260  0.95186973     0.18700
N3570       N  0.33682614  0.42277212  0.90890943    -0.88000
H3571       H  0.21830241  0.46011833  0.92242668     0.36100
H3572       H  0.23455862  0.48736521  0.93397283     0.41200
H3573       H  0.33659732  0.40168956  0.91107960     0.40800
H3574       H  0.35187595  0.42977715  0.92213927     0.35700
C3575       C  0.33112123  0.51124876  0.27560820    -0.26000
C3576       C  0.35790908  0.50268509  0.28113183    -0.14100
C3577       C  0.36805542  0.50376562  0.30794939     0.36500
C3578       C  0.35043128  0.51137324  0.32897430    -0.25500
C3579       C  0.32302882  0.51791528  0.32352355    -0.14700
C3580       C  0.31369115  0.51913026  0.29635710     0.37600
N3581       N  0.28634505  0.52733213  0.28921623    -0.89000
H3582       H  0.32354131  0.51135187  0.25493262     0.18700
H3583       H  0.35775820  0.51116591  0.34967424     0.18700
N3584       N  0.39582638  0.49613178  0.31379099    -0.88000
H3585       H  0.28753103  0.54474950  0.27717388     0.36100
H3586       H  0.27525556  0.53297190  0.30619169     0.41200
H3587       H  0.39820495  0.47557746  0.30916843     0.40800
H3588       H  0.40007846  0.49805581  0.33446892     0.35700
C3589       C  0.47705909  0.39745487  0.16638101    -0.26000
C3590       C  0.47241825  0.41936454  0.18377110    -0.14100
C3591       C  0.48360594  0.41899805  0.21020369     0.36500
C3592       C  0.49881034  0.39670766  0.21877759    -0.25500
C3593       C  0.50191885  0.37408922  0.20228809    -0.14700
C3594       C  0.49159742  0.37445405  0.17547261     0.37600
N3595       N  0.49491179  0.35195646  0.15736029    -0.89000
H3596       H  0.46807648  0.39771952  0.14625129     0.18700
H3597       H  0.50600910  0.39586578  0.23955241     0.18700
N3598       N  0.47737776  0.44010515  0.22916536    -0.88000
H3599       H  0.47556783  0.34485380  0.15244158     0.36100
H3600       H  0.50551401  0.33589089  0.16666276     0.41200
H3601       H  0.45665181  0.43906290  0.23344307     0.40800
H3602       H  0.48781055  0.43704698  0.24751982     0.35700
C3603       C  0.46964593  0.51211843  0.22608341    -0.26000
C3604       C  0.44491354  0.52304553  0.21491165    -0.14100
C3605       C  0.44212280  0.55181302  0.21895924     0.36500
C3606       C  0.46476923  0.56785111  0.22710976    -0.25500
C3607       C  0.48984443  0.55683742  0.23687902    -0.14700
C3608       C  0.49149286  0.52806608  0.23686585     0.37600
N3609       N  0.51471958  0.51471933  0.24910507    -0.89000
H3610       H  0.47146320  0.49051036  0.22817193     0.18700
H3611       H  0.46161210  0.58956327  0.22781168     0.18700
N3612       N  0.41613867  0.56525664  0.22027905    -0.88000
H3613       H  0.51317379  0.49366618  0.24760240     0.36100
H3614       H  0.51466475  0.51926077  0.26974529     0.41200
H3615       H  0.40004893  0.55180643  0.21996972     0.40800
H3616       H  0.41446056  0.57965844  0.20476501     0.35700
C3617       C  0.21105622  0.29838741  0.17418142    -0.26000
C3618       C  0.22553927  0.27363407  0.17490885    -0.14100
C3619       C  0.25319933  0.27335032  0.16700008     0.36500
C3620       C  0.26530511  0.29764064  0.15857777    -0.25500
C3621       C  0.25073426  0.32236934  0.15776063    -0.14700
C3622       C  0.22328564  0.32267626  0.16616469     0.37600
N3623       N  0.20736857  0.34723676  0.16763185    -0.89000
H3624       H  0.18984239  0.29885800  0.17988158     0.18700
H3625       H  0.28633746  0.29722147  0.15233282     0.18700
N3626       N  0.26931648  0.24880718  0.16597887    -0.88000
H3627       H  0.19127996  0.34565512  0.15374884     0.36100
H3628       H  0.21863446  0.36406604  0.16217322     0.41200
H3629       H  0.25832570  0.23187484  0.17174646     0.40800
H3630       H  0.28526198  0.25063778  0.18000823     0.35700
C3631       C  0.31956467  0.33296537  0.18824222    -0.26000
C3632       C  0.29484173  0.34707731  0.18988018    -0.14100
C3633       C  0.27846111  0.34415141  0.21296866     0.36500
C3634       C  0.28723537  0.32686082  0.23382107    -0.25500
C3635       C  0.31210421  0.31259391  0.23242253    -0.14700
C3636       C  0.32831193  0.31541942  0.20903309     0.37600
N3637       N  0.35364184  0.30075878  0.20640309    -0.89000
H3638       H  0.33148975  0.33471484  0.17003280     0.18700
H3639       H  0.27471207  0.32519419  0.25161884     0.18700
N3640       N  0.25305403  0.35859436  0.21606358    -0.88000
H3641       H  0.36350009  0.30630306  0.18863801     0.36100
H3642       H  0.34904526  0.28023484  0.20441921     0.41200
H3643       H  0.24938694  0.37204540  0.20004098     0.40800
H3644       H  0.25477749  0.37063531  0.23333901     0.35700
C3645       C  0.33503348  0.41560550  0.14351913    -0.26000
C3646       C  0.31715568  0.40290719  0.16176203    -0.14100
C3647       C  0.32135220  0.41000974  0.18948338     0.36500
C3648       C  0.34312846  0.42731051  0.19785896    -0.25500
C3649       C  0.36004201  0.44139358  0.17967382    -0.14700
C3650       C  0.35561951  0.43430734  0.15171046     0.37600
N3651       N  0.37212721  0.44498311  0.13062065    -0.89000
H3652       H  0.33335250  0.41077774  0.12223951     0.18700
H3653       H  0.34660751  0.42947984  0.21921558     0.18700
N3654       N  0.30267951  0.40077082  0.20943389    -0.88000
H3655       H  0.39232911  0.43910699  0.13398071     0.36100
H3656       H  0.37059532  0.46605516  0.13025374     0.41200
H3657       H  0.28375537  0.40974402  0.20492957     0.40800
H3658       H  0.30822963  0.40741356  0.22875451     0.35700
C3659       C  0.25121635  0.33023612  0.08601224    -0.26000
C3660       C  0.24273727  0.35141539  0.10304514    -0.14100
C3661       C  0.21622194  0.36249031  0.09794896     0.36500
C3662       C  0.19849380  0.35027953  0.07857545    -0.25500
C3663       C  0.20651322  0.32809911  0.06216750    -0.14700
C3664       C  0.23456661  0.32019530  0.06456993     0.37600
N3665       N  0.24676923  0.30278605  0.04477075    -0.89000
H3666       H  0.27166199  0.32212409  0.08873021     0.18700
H3667       H  0.17836627  0.35907282  0.07571198     0.18700
N3668       N  0.20679607  0.38671357  0.11114422    -0.88000
H3669       H  0.26715215  0.29858796  0.04964865     0.36100
H3670       H  0.24671728  0.31313843  0.02631785     0.41200
H3671       H  0.22141434  0.39422832  0.12449215     0.40800
H3672       H  0.18969669  0.38194778  0.12243170     0.35700
C3673       C  0.28773137  0.41901403  0.06028831    -0.26000
C3674       C  0.27733725  0.44451103  0.06739455    -0.14100
C3675       C  0.26926659  0.44972515  0.09424344     0.36500
C3676       C  0.27074763  0.42876522  0.11311518    -0.25500
C3677       C  0.28075659  0.40317457  0.10599541    -0.14700
C3678       C  0.28977636  0.39817291  0.07941207     0.37600
N3679       N  0.30206636  0.37287234  0.07142587    -0.89000
H3680       H  0.29455632  0.41539496  0.03982315     0.18700
H3681       H  0.26401910  0.43248812  0.13360100     0.18700
N3682       N  0.25986359  0.47590525  0.10318651    -0.88000
H3683       H  0.28917208  0.36395340  0.05716612     0.36100
H3684       H  0.30431604  0.35944611  0.08769404     0.41200
H3685       H  0.26095977  0.49034358  0.08784482     0.40800
H3686       H  0.27321779  0.48233220  0.11840018     0.35700
C3687       C  0.22618159  0.71856944  0.18933550    -0.26000
C3688       C  0.24718854  0.73738837  0.19150911    -0.14100
C3689       C  0.27411242  0.72867932  0.18664489     0.36500
C3690       C  0.27950353  0.70176136  0.17896839    -0.25500
C3691       C  0.25838079  0.68334289  0.17499502    -0.14700
C3692       C  0.23135787  0.69176084  0.18085795     0.37600
N3693       N  0.20877526  0.67375759  0.17871945    -0.89000
H3694       H  0.20542866  0.72503771  0.19315134     0.18700
H3695       H  0.30021851  0.69553693  0.17466905     0.18700
N3696       N  0.29604565  0.74730229  0.18916566    -0.88000
H3697       H  0.19596271  0.68104415  0.16319782     0.36100
H3698       H  0.21502499  0.65423826  0.17338123     0.41200
H3699       H  0.30586944  0.74826732  0.17055622     0.40800
H3700       H  0.30992102  0.73950746  0.20351140     0.35700
C3701       C  0.32171494  0.64144229  0.20437703    -0.26000
C3702       C  0.29382494  0.63771108  0.20008335    -0.14100
C3703       C  0.27638141  0.63385592  0.22218301     0.36500
C3704       C  0.28684171  0.63658645  0.24822140    -0.25500
C3705       C  0.31423230  0.64259602  0.25252921    -0.14700
C3706       C  0.33220019  0.64399808  0.23070048     0.37600
N3707       N  0.36031806  0.65029819  0.23527287    -0.89000
H3708       H  0.33494733  0.64379535  0.18718497     0.18700
H3709       H  0.27318180  0.63541032  0.26523329     0.18700
N3710       N  0.24811527  0.62734938  0.21906782    -0.88000
H3711       H  0.37053246  0.65154862  0.21689651     0.36100
H3712       H  0.36925468  0.63408514  0.24599868     0.41200
H3713       H  0.24282836  0.62332915  0.19901124     0.40800
H3714       H  0.23663042  0.64417244  0.22523960     0.35700
C3715       C  0.21399478  0.65114227  0.11309943    -0.26000
C3716       C  0.23887864  0.66285506  0.11975860    -0.14100
C3717       C  0.24665211  0.68742619  0.10751601     0.36500
C3718       C  0.22874839  0.70004081  0.08927783    -0.25500
C3719       C  0.20410498  0.68808229  0.08227609    -0.14700
C3720       C  0.19664484  0.66321064  0.09398864     0.37600
N3721       N  0.17236775  0.64919442  0.08621952    -0.89000
H3722       H  0.20836498  0.63207772  0.12229793     0.18700
H3723       H  0.23470093  0.71853345  0.07917904     0.18700
N3724       N  0.27301245  0.69909467  0.11143942    -0.88000
H3725       H  0.17834909  0.63085744  0.07738884     0.36100
H3726       H  0.16115120  0.65983145  0.07148931     0.41200
H3727       H  0.28589977  0.68681423  0.12328340     0.40800
H3728       H  0.27031964  0.71747625  0.12157476     0.35700
C3729       C  0.33134500  0.59816144  0.14357696    -0.26000
C3730       C  0.30591263  0.59540222  0.15559068    -0.14100
C3731       C  0.29839042  0.57062798  0.16701091     0.36500
C3732       C  0.31724780  0.54917388  0.16754220    -0.25500
C3733       C  0.34329416  0.55204459  0.15651195    -0.14700
C3734       C  0.35010695  0.57650240  0.14363603     0.37600
N3735       N  0.37595802  0.57915306  0.13076281    -0.89000
H3736       H  0.33643998  0.61722541  0.13406472     0.18700
H3737       H  0.31194162  0.53052898  0.17766205     0.18700
N3738       N  0.27169696  0.56740746  0.17796076    -0.88000
H3739       H  0.37771478  0.59845288  0.12218580     0.36100
H3740       H  0.37657900  0.56531709  0.11481448     0.41200
H3741       H  0.27030039  0.57980337  0.19497056     0.40800
H3742       H  0.26912880  0.54752638  0.18477505     0.35700
C3743       C  0.24721213  0.58452668  0.11207911    -0.26000
C3744       C  0.26580145  0.60555135  0.10935192    -0.14100
C3745       C  0.28447851  0.60491183  0.08796314     0.36500
C3746       C  0.28506578  0.58248405  0.07075598    -0.25500
C3747       C  0.26712484  0.56078181  0.07387085    -0.14700
C3748       C  0.24741278  0.56216777  0.09465592     0.37600
N3749       N  0.22806001  0.54123325  0.09969334    -0.89000
H3750       H  0.23326952  0.58478438  0.12890166     0.18700
H3751       H  0.29976063  0.58211537  0.05458490     0.18700
N3752       N  0.30364449  0.62616668  0.08358158    -0.88000
H3753       H  0.23232441  0.53317313  0.11891818     0.36100
H3754       H  0.22975087  0.52519855  0.08626453     0.41200
H3755       H  0.30093199  0.64202014  0.09723986     0.40800
H3756       H  0.29956488  0.63440453  0.06439981     0.35700
C3757       C  0.01186595  0.17517863  0.19709331    -0.26000
C3758       C  0.00591877  0.18690504  0.22246329    -0.14100
C3759       C  0.00073436  0.21548434  0.22269020     0.36500
C3760       C  0.00048043  0.23060036  0.19853588    -0.25500
C3761       C  0.00624293  0.21890275  0.17348181    -0.14700
C3762       C  0.01222255  0.19069588  0.17281989     0.37600
N3763       N  0.01843166  0.17707990  0.14798770    -0.89000
H3764       H  0.01610022  0.15361103  0.19601703     0.18700
H3765       H  0.99711272  0.25230201  0.19947932     0.18700
N3766       N  0.99763561  0.23056163  0.24706493    -0.88000
H3767       H  0.03867671  0.17036597  0.14932005     0.36100
H3768       H  0.01700112  0.19034193  0.13149290     0.41200
H3769       H  0.97798618  0.22802177  0.25418015     0.40800
H3770       H  0.01246181  0.22426915  0.26116913     0.35700
C3771       C  0.06348243  0.07300088  0.30220022    -0.26000
C3772       C  0.04431708  0.08792881  0.28597877    -0.14100
C3773       C  0.03389010  0.07253216  0.26334072     0.36500
C3774       C  0.04367875  0.04576861  0.25707868    -0.25500
C3775       C  0.06295985  0.03117215  0.27304321    -0.14700
C3776       C  0.07279672  0.04575109  0.29619610     0.37600
N3777       N  0.09203524  0.03332340  0.31472259    -0.89000
H3778       H  0.07090015  0.08233555  0.32058965     0.18700
H3779       H  0.03620017  0.03630961  0.23875474     0.18700
N3780       N  0.01246509  0.08285648  0.24616203    -0.88000
H3781       H  0.10964784  0.04488492  0.31485884     0.36100
H3782       H  0.09753140  0.01380040  0.30854771     0.41200
H3783       H  0.01960450  0.09909324  0.23495122     0.40800
H3784       H  0.99583718  0.08882586  0.25775303     0.35700
C3785       C  0.95032667  0.03705237  0.30487780    -0.26000
C3786       C  0.94612937  0.05972240  0.32153099    -0.14100
C3787       C  0.92186785  0.06130920  0.33659067     0.36500
C3788       C  0.90141712  0.04215916  0.33234031    -0.25500
C3789       C  0.90506470  0.02073085  0.31417174    -0.14700
C3790       C  0.93035620  0.01751932  0.30135922     0.37600
N3791       N  0.93527794  0.99575595  0.28293402    -0.89000
H3792       H  0.96854615  0.03498808  0.29303590     0.18700
H3793       H  0.88219666  0.04455873  0.34262030     0.18700
N3794       N  0.91779431  0.08220496  0.35618742    -0.88000
H3795       H  0.95218860  0.98467770  0.29013388     0.36100
H3796       H  0.94038701  0.00380999  0.26411385     0.41200
H3797       H  0.91459087  0.07297951  0.37494029     0.40800
H3798       H  0.90012336  0.09311261  0.35080943     0.35700
C3799       C  0.74580919  0.27755250  0.50719558    -0.26000
C3800       C  0.74474247  0.30534318  0.50085472    -0.14100
C3801       C  0.71921338  0.31727952  0.49374103     0.36500
C3802       C  0.69560092  0.30145933  0.49353815    -0.25500
C3803       C  0.69670379  0.27383693  0.50057010    -0.14700
C3804       C  0.72210702  0.26189089  0.50732397     0.37600
N3805       N  0.72389376  0.23369089  0.51411543    -0.89000
H3806       H  0.76518466  0.26805226  0.51243766     0.18700
H3807       H  0.67615681  0.31085956  0.48839924     0.18700
N3808       N  0.71677548  0.34521276  0.48601796    -0.88000
H3809       H  0.73289835  0.23191104  0.53332747     0.36100
H3810       H  0.73689560  0.22426256  0.50034824     0.41200
H3811       H  0.72990878  0.34867711  0.46994256     0.40800
H3812       H  0.72278030  0.35714153  0.50236189     0.35700
C3813       C  0.82518731  0.41556981  0.40922860    -0.26000
C3814       C  0.82954834  0.42350946  0.43624702    -0.14100
C3815       C  0.82679638  0.45159899  0.44229132     0.36500
C3816       C  0.81521284  0.46945843  0.42312093    -0.25500
C3817       C  0.80988253  0.46144095  0.39638375    -0.14700
C3818       C  0.81679505  0.43445952  0.38908832     0.37600
N3819       N  0.81531112  0.42627180  0.36126012    -0.89000
H3820       H  0.82810184  0.39456818  0.40366103     0.18700
H3821       H  0.81061639  0.48987765  0.42954593     0.18700
N3822       N  0.83719656  0.46325828  0.46681928    -0.88000
H3823       H  0.82103426  0.40588773  0.35923553     0.36100
H3824       H  0.82948761  0.43757207  0.35060833     0.41200
H3825       H  0.85143287  0.45047346  0.47644822     0.40800
H3826       H  0.82094005  0.46739694  0.47965664     0.35700
C3827       C  0.78376226  0.40624305  0.54020741    -0.26000
C3828       C  0.81129691  0.39711963  0.54190551    -0.14100
C3829       C  0.82922887  0.41587157  0.55507209     0.36500
C3830       C  0.81935090  0.44032401  0.56733417    -0.25500
C3831       C  0.79169224  0.44837824  0.56664121    -0.14700
C3832       C  0.77394261  0.43082004  0.55241841     0.37600
N3833       N  0.74560706  0.43806790  0.55022381    -0.89000
H3834       H  0.76960403  0.39490546  0.52814108     0.18700
H3835       H  0.83363018  0.45296598  0.57811184     0.18700
N3836       N  0.85800764  0.41117145  0.55611792    -0.88000
H3837       H  0.73493580  0.42335227  0.53948591     0.36100
H3838       H  0.74394991  0.45597759  0.53893255     0.41200
H3839       H  0.86517026  0.40846125  0.53649615     0.40800
H3840       H  0.86220220  0.39384427  0.56765138     0.35700
C3841       C  0.06739374  0.17175156  0.83504833    -0.26000
C3842       C  0.05042960  0.18274749  0.81435919    -0.14100
C3843       C  0.03777156  0.20827188  0.81897278     0.36500
C3844       C  0.04004610  0.22061172  0.84441191    -0.25500
C3845       C  0.05619714  0.20919023  0.86518511    -0.14700
C3846       C  0.07089382  0.18501213  0.86011419     0.37600
N3847       N  0.08953966  0.17418570  0.88013921    -0.89000
H3848       H  0.07777614  0.15256404  0.83189158     0.18700
H3849       H  0.02949437  0.23969418  0.84792536     0.18700
N3850       N  0.02340553  0.22239140  0.79769906    -0.88000
H3851       H  0.09932081  0.15672880  0.87296250     0.36100
H3852       H  0.07846552  0.16829003  0.89694381     0.41200
H3853       H  0.03273219  0.24104848  0.79469140     0.40800
H3854       H  0.00351643  0.22618696  0.80406593     0.35700
C3855       C  0.10550122  0.09506454  0.71900611    -0.26000
C3856       C  0.08594419  0.09999550  0.73929516    -0.14100
C3857       C  0.08824302  0.08431396  0.76365807     0.36500
C3858       C  0.10974775  0.06573946  0.76697595    -0.25500
C3859       C  0.12913701  0.06155162  0.74698411    -0.14700
C3860       C  0.12714247  0.07644859  0.72267577     0.37600
N3861       N  0.14658075  0.07336231  0.70136003    -0.89000
H3862       H  0.10377338  0.10485775  0.69948779     0.18700
H3863       H  0.11121467  0.05407525  0.78559440     0.18700
N3864       N  0.06880775  0.08523574  0.78517018    -0.88000
H3865       H  0.13627042  0.06584677  0.68442870     0.36100
H3866       H  0.16170169  0.05906025  0.70637626     0.41200
H3867       H  0.05145788  0.09670703  0.78067436     0.40800
H3868       H  0.07826109  0.09378289  0.80209121     0.35700
C3869       C  0.99232014  0.03978598  0.76676436    -0.26000
C3870       C  0.98713569  0.05049187  0.74085504    -0.14100
C3871       C  0.96755074  0.03880246  0.72392474     0.36500
C3872       C  0.95252087  0.01706182  0.73350286    -0.25500
C3873       C  0.95637104  0.00765565  0.76006792    -0.14700
C3874       C  0.97688901  0.01859778  0.77666663     0.37600
N3875       N  0.98236072  0.00869133  0.80351025    -0.89000
H3876       H  0.00774351  0.04868740  0.77964041     0.18700
H3877       H  0.93676032  0.00853149  0.72075209     0.18700
N3878       N  0.96278766  0.04924694  0.69719737    -0.88000
H3879       H  0.98691260  0.98797891  0.80242229     0.36100
H3880       H  0.96494521  0.01124944  0.81510049     0.41200
H3881       H  0.94237141  0.05534990  0.69564601     0.40800
H3882       H  0.96600698  0.03345896  0.68350904     0.35700
C3883       C  0.88421042  0.19600794  0.75382228    -0.26000
C3884       C  0.88735277  0.21640261  0.77329239    -0.14100
C3885       C  0.89759338  0.24174146  0.76513061     0.36500
C3886       C  0.90471645  0.24603733  0.73809170    -0.25500
C3887       C  0.90251495  0.22541315  0.71886433    -0.14700
C3888       C  0.89180426  0.20015094  0.72685824     0.37600
N3889       N  0.88789927  0.17849257  0.70810708    -0.89000
H3890       H  0.87636062  0.17646859  0.75970121     0.18700
H3891       H  0.91228329  0.26561086  0.73202942     0.18700
N3892       N  0.90037378  0.26340863  0.78412187    -0.88000
H3893       H  0.90675309  0.17207210  0.70106564     0.36100
H3894       H  0.87624760  0.18554080  0.69168858     0.41200
H3895       H  0.88864347  0.27991684  0.77712211     0.40800
H3896       H  0.92074227  0.26917160  0.78451383     0.35700
C3897       C  0.84866583  0.24407099  0.68430370    -0.26000
C3898       C  0.87041866  0.26164115  0.68194353    -0.14100
C3899       C  0.86685316  0.28974363  0.68537983     0.36500
C3900       C  0.84087805  0.29990780  0.69028159    -0.25500
C3901       C  0.81895862  0.28220671  0.69185027    -0.14700
C3902       C  0.82284072  0.25412338  0.68915241     0.37600
N3903       N  0.80034897  0.23600475  0.68931636    -0.89000
H3904       H  0.85143398  0.22259340  0.68088431     0.18700
H3905       H  0.83760872  0.32160688  0.69208739     0.18700
N3906       N  0.88900848  0.30815288  0.68373114    -0.88000
H3907       H  0.80398341  0.22146485  0.70444721     0.36100
H3908       H  0.79964851  0.22603003  0.67070072     0.41200
H3909       H  0.89743922  0.30677223  0.66450066     0.40800
H3910       H  0.90385110  0.30221513  0.69796273     0.35700
C3911       C  0.98661498  0.19168668  0.72187275    -0.26000
C3912       C  0.98898418  0.16457884  0.71312196    -0.14100
C3913       C  0.97309203  0.15719337  0.69014918     0.36500
C3914       C  0.95431942  0.17578044  0.67837407    -0.25500
C3915       C  0.95113991  0.20209320  0.68850603    -0.14700
C3916       C  0.96812747  0.21028279  0.71015874     0.37600
N3917       N  0.96911194  0.23789371  0.71931498    -0.89000
H3918       H  0.00100689  0.19981451  0.73611272     0.18700
H3919       H  0.94208936  0.16956870  0.66116208     0.18700
N3920       N  0.97692907  0.13133595  0.67762369    -0.88000
H3921       H  0.96232960  0.23835243  0.73926615     0.36100
H3922       H  0.95658827  0.25087308  0.70782605     0.41200
H3923       H  0.98277664  0.13456654  0.65761624     0.40800
H3924       H  0.95823623  0.12152683  0.67726795     0.35700
C3925       C  0.90457774  0.29972804  0.58749570    -0.26000
C3926       C  0.87655955  0.30170951  0.58144899    -0.14100
C3927       C  0.85875748  0.28611858  0.59726382     0.36500
C3928       C  0.86908240  0.26900490  0.61815343    -0.25500
C3929       C  0.89708267  0.26745927  0.62485378    -0.14700
C3930       C  0.91480998  0.28344325  0.60923766     0.37600
N3931       N  0.94314335  0.28421425  0.61609044    -0.89000
H3932       H  0.91856790  0.31159086  0.57573930     0.18700
H3933       H  0.85488769  0.25683644  0.62925729     0.18700
N3934       N  0.83002144  0.28703480  0.59232497    -0.88000
H3935       H  0.94801384  0.30427157  0.62054316     0.36100
H3936       H  0.95415981  0.27836579  0.59907171     0.41200
H3937       H  0.82638811  0.28200601  0.57208782     0.40800
H3938       H  0.82299002  0.30685394  0.59544579     0.35700
C3939       C  0.93158337  0.21545295  0.60374078    -0.26000
C3940       C  0.94508654  0.22292051  0.62765615    -0.14100
C3941       C  0.97348934  0.22524215  0.62829443     0.36500
C3942       C  0.98790658  0.22127318  0.60456021    -0.25500
C3943       C  0.97410812  0.21632935  0.58021587    -0.14700
C3944       C  0.94591680  0.21262028  0.57968344     0.37600
N3945       N  0.93197057  0.20735119  0.55462498    -0.89000
H3946       H  0.90966362  0.21348295  0.60355382     0.18700
H3947       H  0.00964626  0.22468373  0.60463214     0.18700
N3948       N  0.98740908  0.23412014  0.65218858    -0.88000
H3949       H  0.91105351  0.20584736  0.55770383     0.36100
H3950       H  0.93870829  0.18837022  0.54789833     0.41200
H3951       H  0.99720655  0.25221551  0.64767248     0.40800
H3952       H  0.00232750  0.21957810  0.65714384     0.35700
C3953       C  0.86885260  0.20911218  0.33101484    -0.26000
C3954       C  0.88178283  0.23400430  0.33469614    -0.14100
C3955       C  0.88217665  0.25269962  0.31310477     0.36500
C3956       C  0.86671078  0.24764983  0.28952776    -0.25500
C3957       C  0.85120914  0.22407150  0.28711082    -0.14700
C3958       C  0.85328115  0.20404537  0.30752746     0.37600
N3959       N  0.83966458  0.17867405  0.30426188    -0.89000
H3960       H  0.87017964  0.19399795  0.34694134     0.18700
H3961       H  0.86631339  0.26238836  0.27319591     0.18700
N3962       N  0.89918744  0.27605970  0.31477878    -0.88000
H3963       H  0.84321472  0.16617740  0.32112575     0.36100
H3964       H  0.84836260  0.16873894  0.28776959     0.41200
H3965       H  0.89218033  0.28843875  0.33029508     0.40800
H3966       H  0.89760781  0.28752700  0.29697107     0.35700
C3967       C  0.85180065  0.29773241  0.36506101    -0.26000
C3968       C  0.85280370  0.27055471  0.37346236    -0.14100
C3969       C  0.82943119  0.25465208  0.37229342     0.36500
C3970       C  0.80640030  0.26505087  0.35907247    -0.25500
C3971       C  0.80597609  0.29141881  0.34851738    -0.14700
C3972       C  0.82833397  0.30857553  0.35261030     0.37600
N3973       N  0.82848339  0.33623152  0.34331071    -0.89000
H3974       H  0.86972687  0.31011326  0.36697248     0.18700
H3975       H  0.78848144  0.25261866  0.35720333     0.18700
N3976       N  0.82878803  0.22859352  0.38545317    -0.88000
H3977       H  0.83022682  0.34860950  0.36034216     0.36100
H3978       H  0.81022905  0.34169686  0.33360829     0.41200
H3979       H  0.84321065  0.21573476  0.37690766     0.40800
H3980       H  0.80991286  0.21954729  0.38246585     0.35700
C3981       C  0.95319291  0.21956555  0.34243682    -0.26000
C3982       C  0.93389707  0.21032597  0.36093494    -0.14100
C3983       C  0.93428936  0.18222667  0.36702218     0.36500
C3984       C  0.95325060  0.16460711  0.35431369    -0.25500
C3985       C  0.97157370  0.17326285  0.33410140    -0.14700
C3986       C  0.97236263  0.20184837  0.32999490     0.37600
N3987       N  0.99337285  0.21355328  0.31425598    -0.89000
H3988       H  0.95394426  0.24107829  0.33805175     0.18700
H3989       H  0.95400153  0.14398174  0.36154045     0.18700
N3990       N  0.91549057  0.17052024  0.38563775    -0.88000
H3991       H  0.00472887  0.22607367  0.32695351     0.36100
H3992       H  0.98394215  0.22628359  0.29996550     0.41200
H3993       H  0.90169191  0.18489425  0.39297238     0.40800
H3994       H  0.92671277  0.16314579  0.40227487     0.35700
C3995       C  0.89364919  0.30112737  0.43346644    -0.26000
C3996       C  0.88307261  0.27513737  0.42882945    -0.14100
C3997       C  0.86148185  0.26721088  0.44599768     0.36500
C3998       C  0.84998965  0.28576121  0.46500398    -0.25500
C3999       C  0.85873499  0.31286544  0.46789422    -0.14700
C4000       C  0.88272830  0.31929377  0.45326139     0.37600
N4001       N  0.89645920  0.34418743  0.45875986    -0.89000
H4002       H  0.91065467  0.30745834  0.42137866     0.18700
H4003       H  0.83442006  0.27832517  0.47816811     0.18700
N4004       N  0.85102545  0.24019135  0.44538506    -0.88000
H4005       H  0.91358927  0.34601440  0.44661994     0.36100
H4006       H  0.90354716  0.34326861  0.47878047     0.41200
H4007       H  0.86117530  0.22812882  0.43134073     0.40800
H4008       H  0.83064858  0.24152864  0.43921199     0.35700
C4009       C  0.92769121  0.21738937  0.44229395    -0.26000
C4010       C  0.93556808  0.23303619  0.42012881    -0.14100
C4011       C  0.96321131  0.23913141  0.41629548     0.36500
C4012       C  0.98226063  0.22986788  0.43526836    -0.25500
C4013       C  0.97403835  0.21677135  0.45884009    -0.14700
C4014       C  0.94675001  0.20970585  0.46220526     0.37600
N4015       N  0.93836134  0.19639434  0.48654506    -0.89000
H4016       H  0.90655177  0.21212039  0.44456934     0.18700
H4017       H  0.00322375  0.23595155  0.43327506     0.18700
N4018       N  0.97242694  0.25662690  0.39504334    -0.88000
H4019       H  0.91755994  0.19237652  0.48565008     0.36100
H4020       H  0.94106719  0.21006117  0.50237984     0.41200
H4021       H  0.95643550  0.26456124  0.38326664     0.40800
H4022       H  0.98502118  0.24517011  0.38245297     0.35700
C4023       C  0.33530541  0.34528835  0.49889732    -0.26000
C4024       C  0.31059664  0.33169822  0.50219111    -0.14100
C4025       C  0.31121544  0.30312251  0.50411157     0.36500
C4026       C  0.33600847  0.28875806  0.50113949    -0.25500
C4027       C  0.36056722  0.30221056  0.49717403    -0.14700
C4028       C  0.36025403  0.33094804  0.49666571     0.37600
N4029       N  0.38477268  0.34619884  0.49475136    -0.89000
H4030       H  0.33517719  0.36723240  0.49789681     0.18700
H4031       H  0.33635414  0.26683087  0.50226655     0.18700
N4032       N  0.28666903  0.28884162  0.50969068    -0.88000
H4033       H  0.38408923  0.35663992  0.47629850     0.36100
H4034       H  0.40189939  0.33346342  0.49461065     0.41200
H4035       H  0.28014537  0.29480988  0.52885098     0.40800
H4036       H  0.29053436  0.26796089  0.51081572     0.35700
C4037       C  0.27151029  0.48282611  0.41213004    -0.26000
C4038       C  0.25672353  0.48601455  0.38803687    -0.14100
C4039       C  0.23317587  0.47069186  0.38326717     0.36500
C4040       C  0.22471524  0.45275667  0.40346342    -0.25500
C4041       C  0.23992685  0.44936522  0.42752966    -0.14700
C4042       C  0.26435596  0.46357957  0.43115225     0.37600
N4043       N  0.28235726  0.45769083  0.45359541    -0.89000
H4044       H  0.28916677  0.49515990  0.41583353     0.18700
H4045       H  0.20613355  0.44158918  0.40052113     0.18700
N4046       N  0.21740725  0.47302956  0.35866038    -0.88000
H4047       H  0.29936653  0.47013707  0.45327381     0.36100
H4048       H  0.28960105  0.43782961  0.45111942     0.41200
H4049       H  0.22586277  0.48686377  0.34524980     0.40800
H4050       H  0.19823640  0.48079732  0.36368411     0.35700
C4051       C  0.23210807  0.44185556  0.55588473    -0.26000
C4052       C  0.24802759  0.42861780  0.53585038    -0.14100
C4053       C  0.27413636  0.44061834  0.53152186     0.36500
C4054       C  0.28372466  0.46205409  0.54824412    -0.25500
C4055       C  0.26793283  0.47469911  0.56838257    -0.14700
C4056       C  0.24151603  0.46395729  0.57197926     0.37600
N4057       N  0.22364227  0.47445541  0.59234109    -0.89000
H4058       H  0.21143069  0.43569479  0.55891095     0.18700
H4059       H  0.30418137  0.46917550  0.54517585     0.18700
N4060       N  0.29159797  0.43270014  0.50978198    -0.88000
H4061       H  0.20635056  0.48238631  0.58244811     0.36100
H4062       H  0.23234822  0.49056821  0.60275852     0.41200
H4063       H  0.28262417  0.41896768  0.49670932     0.40800
H4064       H  0.30915094  0.42363943  0.51812157     0.35700
C4065       C  0.17778954  0.21462248  0.31332886    -0.26000
C4066       C  0.16854628  0.22630016  0.28886421    -0.14100
C4067       C  0.15537086  0.25190024  0.28930503     0.36500
C4068       C  0.15106781  0.26481083  0.31439518    -0.25500
C4069       C  0.15993298  0.25278574  0.33885830    -0.14700
C4070       C  0.17379747  0.22748341  0.33819584     0.37600
N4071       N  0.18394651  0.21415053  0.36228160    -0.89000
H4072       H  0.18795063  0.19495667  0.31314759     0.18700
H4073       H  0.14008221  0.28398162  0.31504466     0.18700
N4074       N  0.14507357  0.26390520  0.26461898    -0.88000
H4075       H  0.17360628  0.19591681  0.36432013     0.36100
H4076       H  0.17997036  0.22548397  0.37958451     0.41200
H4077       H  0.16175707  0.26865062  0.25269557     0.40800
H4078       H  0.13499519  0.28224765  0.26861371     0.35700
C4079       C  0.22890370  0.30202022  0.33904576    -0.26000
C4080       C  0.24851967  0.28617027  0.35274367    -0.14100
C4081       C  0.24218532  0.27222980  0.37651534     0.36500
C4082       C  0.21567871  0.27327234  0.38573344    -0.25500
C4083       C  0.19576814  0.28845472  0.37166298    -0.14700
C4084       C  0.20241649  0.30364644  0.34852110     0.37600
N4085       N  0.18325354  0.32144796  0.33487962    -0.89000
H4086       H  0.23448644  0.31403050  0.32159963     0.18700
H4087       H  0.21038401  0.26138772  0.40335942     0.18700
N4088       N  0.26262487  0.25687101  0.39106548    -0.88000
H4089       H  0.18054891  0.31435702  0.31515553     0.36100
H4090       H  0.16430311  0.32136871  0.34414320     0.41200
H4091       H  0.25629717  0.23677009  0.39225025     0.40800
H4092       H  0.26386240  0.26449212  0.41074206     0.35700
C4093       C  0.18450483  0.29858200  0.44842451    -0.26000
C4094       C  0.16938622  0.30781695  0.42553511    -0.14100
C4095       C  0.16811718  0.33646625  0.42175330     0.36500
C4096       C  0.18203558  0.35424911  0.43971790    -0.25500
C4097       C  0.19849702  0.34520378  0.46190486    -0.14700
C4098       C  0.19830910  0.31660674  0.46653892     0.37600
N4099       N  0.21176904  0.30546138  0.48998544    -0.89000
H4100       H  0.18603739  0.27701185  0.45226914     0.18700
H4101       H  0.17879165  0.37570586  0.43649192     0.18700
N4102       N  0.15209877  0.34865431  0.40028071    -0.88000
H4103       H  0.22609595  0.29107570  0.48356486     0.36100
H4104       H  0.19732468  0.29527433  0.50136796     0.41200
H4105       H  0.14117252  0.33431249  0.38937383     0.40800
H4106       H  0.16547982  0.35775107  0.38685079     0.35700
C4107       C  0.11676441  0.20810097  0.38008782    -0.26000
C4108       C  0.11253351  0.23521197  0.37148886    -0.14100
C4109       C  0.09221698  0.24005004  0.35119734     0.36500
C4110       C  0.07682448  0.21830453  0.34073640    -0.25500
C4111       C  0.08122580  0.19116921  0.34909144    -0.14700
C4112       C  0.10160043  0.18633702  0.36913571     0.37600
N4113       N  0.10691065  0.15950811  0.37916738    -0.89000
H4114       H  0.13243255  0.20367447  0.39512967     0.18700
H4115       H  0.06088853  0.22271971  0.32595992     0.18700
N4116       N  0.08608557  0.26685001  0.34104552    -0.88000
H4117       H  0.11265761  0.14733679  0.36288998     0.36100
H4118       H  0.08885564  0.15198137  0.38697253     0.41200
H4119       H  0.09788346  0.28150905  0.35052969     0.40800
H4120       H  0.09087334  0.26719927  0.32050122     0.35700
C4121       C  0.10272487  0.24556736  0.46850545    -0.26000
C4122       C  0.07699789  0.25819397  0.46637093    -0.14100
C4123       C  0.07127993  0.27634632  0.44475934     0.36500
C4124       C  0.09108737  0.28079709  0.42546324    -0.25500
C4125       C  0.11640123  0.26761505  0.42736252    -0.14700
C4126       C  0.12245590  0.24974125  0.44902210     0.37600
N4127       N  0.14781695  0.23491329  0.45148897    -0.89000
H4128       H  0.10731873  0.23170594  0.48509085     0.18700
H4129       H  0.08646942  0.29411002  0.40843612     0.18700
N4130       N  0.04536044  0.28961075  0.44116947    -0.88000
H4131       H  0.14346721  0.21426577  0.45040649     0.36100
H4132       H  0.16073990  0.23888994  0.43543073     0.41200
H4133       H  0.04191077  0.30232461  0.45765743     0.40800
H4134       H  0.03029726  0.27493889  0.44040701     0.35700
C4135       C  0.16692756  0.23901925  0.70073541    -0.26000
C4136       C  0.15814445  0.26617340  0.70227753    -0.14100
C4137       C  0.16278821  0.28078721  0.72623537     0.36500
C4138       C  0.17822183  0.26874080  0.74729510    -0.25500
C4139       C  0.18873792  0.24232170  0.74475207    -0.14700
C4140       C  0.18234149  0.22695122  0.72176328     0.37600
N4141       N  0.19211930  0.19945742  0.71964788    -0.89000
H4142       H  0.16276921  0.22754488  0.68271730     0.18700
H4143       H  0.18285718  0.28026786  0.76534635     0.18700
N4144       N  0.15148803  0.30764276  0.72911731    -0.88000
H4145       H  0.18596767  0.19106922  0.70121408     0.36100
H4146       H  0.18270910  0.18826318  0.73479500     0.41200
H4147       H  0.16088649  0.32029835  0.71521845     0.40800
H4148       H  0.15605540  0.31530663  0.74830109     0.35700
C4149       C  0.23300202  0.27722166  0.65581382    -0.26000
C4150       C  0.24547586  0.29947150  0.66748295    -0.14100
C4151       C  0.23022437  0.32204757  0.67637171     0.36500
C4152       C  0.20196109  0.32170949  0.67359001    -0.25500
C4153       C  0.18938498  0.29878641  0.66322983    -0.14700
C4154       C  0.20487312  0.27647209  0.65397219     0.37600
N4155       N  0.19212217  0.25298976  0.64289332    -0.89000
H4156       H  0.24506963  0.26000272  0.64907843     0.18700
H4157       H  0.18973795  0.33883011  0.68022327     0.18700
N4158       N  0.24353384  0.34506574  0.68801186    -0.88000
H4159       H  0.19888384  0.23613217  0.65410980     0.36100
H4160       H  0.19917752  0.25018385  0.62323155     0.41200
H4161       H  0.25236029  0.33887973  0.70641982     0.40800
H4162       H  0.22929953  0.36026369  0.69262904     0.35700
C4163       C  0.10227426  0.20104513  0.66099783    -0.26000
C4164       C  0.08369361  0.20003213  0.68196028    -0.14100
C4165       C  0.07800290  0.22324174  0.69752139     0.36500
C4166       C  0.09079065  0.24752744  0.69142466    -0.25500
C4167       C  0.10904654  0.24865671  0.67008556    -0.14700
C4168       C  0.11504808  0.22525012  0.65484079     0.37600
N4169       N  0.13475723  0.22571919  0.63377388    -0.89000
H4170       H  0.10667052  0.18298619  0.64934313     0.18700
H4171       H  0.08673485  0.26540097  0.70348844     0.18700
N4172       N  0.05970685  0.22190505  0.71979010    -0.88000
H4173       H  0.12531056  0.21911897  0.61597541     0.36100
H4174       H  0.15012828  0.21158111  0.63861722     0.41200
H4175       H  0.04394887  0.23602119  0.71633453     0.40800
H4176       H  0.07022867  0.22759889  0.73732303     0.35700
C4177       C  0.17347023  0.30909303  0.60025038    -0.26000
C4178       C  0.15321602  0.32019268  0.61673987    -0.14100
C4179       C  0.14152594  0.34568198  0.61013276     0.36500
C4180       C  0.15111701  0.35995941  0.58756471    -0.25500
C4181       C  0.17143542  0.34866599  0.57130747    -0.14700
C4182       C  0.18258315  0.32307234  0.57760408     0.37600
N4183       N  0.20358534  0.31154778  0.56125359    -0.89000
H4184       H  0.18197297  0.28929516  0.60457746     0.18700
H4185       H  0.14277036  0.37981510  0.58249143     0.18700
N4186       N  0.12047028  0.35712826  0.62665205    -0.88000
H4187       H  0.19689489  0.29286045  0.55409239     0.36100
H4188       H  0.22069624  0.30796258  0.57359791     0.41200
H4189       H  0.10347722  0.34477636  0.62480907     0.40800
H4190       H  0.11449170  0.37624961  0.61930894     0.35700
C4191       C  0.05877593  0.27293453  0.60129009    -0.26000
C4192       C  0.07077435  0.26034764  0.57897928    -0.14100
C4193       C  0.09916112  0.25963645  0.57630286     0.36500
C4194       C  0.11514676  0.27105075  0.59641830    -0.25500
C4195       C  0.10330725  0.28279693  0.61932505    -0.14700
C4196       C  0.07475411  0.28424273  0.62163829     0.37600
N4197       N  0.06138730  0.29674471  0.64422103    -0.89000
H4198       H  0.03680978  0.27392921  0.60290443     0.18700
H4199       H  0.13699900  0.26911056  0.59490838     0.18700
N4200       N  0.11219451  0.24775992  0.55334263    -0.88000
H4201       H  0.04945534  0.31285433  0.63664063     0.36100
H4202       H  0.07528639  0.30532283  0.65766983     0.41200
H4203       H  0.10470474  0.25738861  0.53582725     0.40800
H4204       H  0.10728448  0.22724741  0.55250821     0.35700
C4205       C  0.17495415  0.98084859  0.18997217    -0.26000
C4206       C  0.19740876  0.98525093  0.20733158    -0.14100
C4207       C  0.19224024  0.99093759  0.23482922     0.36500
C4208       C  0.16527330  0.99326696  0.24399002    -0.25500
C4209       C  0.14296641  0.98911015  0.22657193    -0.14700
C4210       C  0.14797311  0.98234136  0.19927118     0.37600
N4211       N  0.12630684  0.97647777  0.18055200    -0.89000
H4212       H  0.17836754  0.97627821  0.16886956     0.18700
H4213       H  0.16163487  0.99757663  0.26512429     0.18700
N4214       N  0.21426844  0.99324577  0.25383201    -0.88000
H4215       H  0.12622467  0.99145208  0.16551752     0.36100
H4216       H  0.10740730  0.97758538  0.18984692     0.41200
H4217       H  0.21196346  0.97845315  0.26881497     0.40800
H4218       H  0.21272666  0.01225532  0.26300391     0.35700
C4219       C  0.26671255  0.06162795  0.05263104    -0.26000
C4220       C  0.28724336  0.07827023  0.04290180    -0.14100
C4221       C  0.31279726  0.07782977  0.05654314     0.36500
C4222       C  0.31696637  0.06134647  0.07975115    -0.25500
C4223       C  0.29603751  0.04518951  0.08978527    -0.14700
C4224       C  0.27073670  0.04546727  0.07583158     0.37600
N4225       N  0.24854810  0.03010685  0.08588785    -0.89000
H4226       H  0.24677754  0.06236404  0.04301929     0.18700
H4227       H  0.33656299  0.06114911  0.08999265     0.18700
N4228       N  0.33452000  0.09459774  0.04777455    -0.88000
H4229       H  0.24231718  0.01680446  0.07069444     0.36100
H4230       H  0.23239650  0.04350469  0.08978054     0.41200
H4231       H  0.32786627  0.11482378  0.04807445     0.40800
H4232       H  0.33902344  0.08946878  0.02781695     0.35700
C4233       C  0.25055346  0.94157549  0.08344974    -0.26000
C4234       C  0.27177471  0.92648420  0.07221371    -0.14100
C4235       C  0.29507221  0.92059993  0.08792959     0.36500
C4236       C  0.29694702  0.93063650  0.11451837    -0.25500
C4237       C  0.27556055  0.94574923  0.12645969    -0.14700
C4238       C  0.25202869  0.95144667  0.10999298     0.37600
N4239       N  0.23031501  0.96872550  0.11927894    -0.89000
H4240       H  0.23245247  0.94560395  0.07125146     0.18700
H4241       H  0.31608110  0.92795894  0.12516103     0.18700
N4242       N  0.31695368  0.90482282  0.07667543    -0.88000
H4243       H  0.21418263  0.96955648  0.10530238     0.36100
H4244       H  0.23761023  0.98843044  0.12070956     0.41200
H4245       H  0.30973220  0.88539441  0.07285214     0.40800
H4246       H  0.33287179  0.90249500  0.09075228     0.35700
C4247       C  0.53691879  0.65949411  0.28331847    -0.26000
C4248       C  0.52892698  0.63467424  0.29460064    -0.14100
C4249       C  0.52431302  0.63369328  0.32294131     0.36500
C4250       C  0.52665968  0.65748736  0.33874711    -0.25500
C4251       C  0.53403415  0.68240820  0.32724278    -0.14700
C4252       C  0.53964965  0.68314486  0.29925823     0.37600
N4253       N  0.54834016  0.70804009  0.28718789    -0.89000
H4254       H  0.54126301  0.66028001  0.26190473     0.18700
H4255       H  0.52251034  0.65655104  0.36019626     0.18700
N4256       N  0.51818642  0.60880040  0.33654516    -0.88000
H4257       H  0.55191954  0.70536312  0.26655829     0.36100
H4258       H  0.56700009  0.71294966  0.29612077     0.41200
H4259       H  0.51869571  0.59242145  0.32328296     0.40800
H4260       H  0.49836223  0.61056805  0.34377917     0.35700
C4261       C  0.48601876  0.76129377  0.47672775    -0.26000
C4262       C  0.47844534  0.77856363  0.45494279    -0.14100
C4263       C  0.45426360  0.79415210  0.45711307     0.36500
C4264       C  0.43755401  0.79082699  0.47966704    -0.25500
C4265       C  0.44458715  0.77261069  0.50060352    -0.14700
C4266       C  0.46948537  0.75838251  0.49944689     0.37600
N4267       N  0.47740215  0.73972195  0.52041146    -0.89000
H4268       H  0.50429551  0.74888781  0.47580473     0.18700
H4269       H  0.41832294  0.80183849  0.48034675     0.18700
N4270       N  0.44647482  0.81339819  0.43658896    -0.88000
H4271       H  0.49620306  0.74569313  0.52827420     0.36100
H4272       H  0.47995513  0.72053920  0.51181185     0.41200
H4273       H  0.44461888  0.83245219  0.44561347     0.40800
H4274       H  0.42734117  0.80809543  0.42902284     0.35700
C4275       C  0.57391235  0.72703778  0.42802401    -0.26000
C4276       C  0.57736139  0.75294050  0.41602416    -0.14100
C4277       C  0.59229206  0.77154286  0.43228380     0.36500
C4278       C  0.60448839  0.76363497  0.45773097    -0.25500
C4279       C  0.60187393  0.73736173  0.46889941    -0.14700
C4280       C  0.58571291  0.71912092  0.45344933     0.37600
N4281       N  0.58078996  0.69202575  0.46287378    -0.89000
H4282       H  0.56073200  0.71272770  0.41814315     0.18700
H4283       H  0.61702803  0.77805285  0.46839839     0.18700
N4284       N  0.59481540  0.79898412  0.42335859    -0.88000
H4285       H  0.55979897  0.69020349  0.46520097     0.36100
H4286       H  0.58935365  0.68860814  0.48203898     0.41200
H4287       H  0.61552154  0.80316571  0.42193508     0.40800
H4288       H  0.58650788  0.81163627  0.43812376     0.35700
C4289       C  0.77849597  0.00197074  0.23932150    -0.26000
C4290       C  0.78729762  0.00965711  0.21338678    -0.14100
C4291       C  0.81506421  0.01433206  0.20934205     0.36500
C4292       C  0.83338212  0.01071154  0.23104617    -0.25500
C4293       C  0.82482843  0.00176217  0.25654694    -0.14700
C4294       C  0.79689203  0.99786554  0.26087500     0.37600
N4295       N  0.78655728  0.98955627  0.28664379    -0.89000
H4296       H  0.75709517  0.99859705  0.24272007     0.18700
H4297       H  0.85469075  0.01383328  0.22771069     0.18700
N4298       N  0.82475637  0.02147937  0.18299818    -0.88000
H4299       H  0.77383987  0.00515302  0.29357310     0.36100
H4300       H  0.80213419  0.98721383  0.30103869     0.41200
H4301       H  0.82140445  0.00498141  0.17024251     0.40800
H4302       H  0.84576158  0.02442394  0.18355820     0.35700
C4303       C  0.72780461  0.07015434  0.09387085    -0.26000
C4304       C  0.74357509  0.04962020  0.10714407    -0.14100
C4305       C  0.77090894  0.04639022  0.09751176     0.36500
C4306       C  0.78079432  0.06263497  0.07608530    -0.25500
C4307       C  0.76506973  0.08314461  0.06332552    -0.14700
C4308       C  0.73812213  0.08700652  0.07294380     0.37600
N4309       N  0.72043546  0.10794790  0.06215226    -0.89000
H4310       H  0.70671995  0.07298855  0.09915080     0.18700
H4311       H  0.80161350  0.05954506  0.06976393     0.18700
N4312       N  0.78973194  0.02686250  0.10882938    -0.88000
H4313       H  0.70422663  0.09850463  0.05231544     0.36100
H4314       H  0.73017610  0.11968520  0.04771686     0.41200
H4315       H  0.78084145  0.00790480  0.11032269     0.40800
H4316       H  0.79598275  0.03332922  0.12787655     0.35700
C4317       C  0.72579812  0.93340970  0.05003603    -0.26000
C4318       C  0.74280834  0.94731427  0.06784150    -0.14100
C4319       C  0.77120580  0.94620823  0.06472562     0.36500
C4320       C  0.78215633  0.93153937  0.04321207    -0.25500
C4321       C  0.76514834  0.91772058  0.02522147    -0.14700
C4322       C  0.73676919  0.91832503  0.02872365     0.37600
N4323       N  0.71935799  0.90316509  0.01103238    -0.89000
H4324       H  0.70399429  0.93460397  0.05273822     0.18700
H4325       H  0.80400554  0.93043276  0.04070121     0.18700
N4326       N  0.78863609  0.95996013  0.08354664    -0.88000
H4327       H  0.69899489  0.90591478  0.01634026     0.36100
H4328       H  0.72400471  0.88259362  0.01394923     0.41200
H4329       H  0.80904826  0.95706250  0.07847544     0.40800
H4330       H  0.78615696  0.95099908  0.10255199     0.35700
C4331       C  0.73362352  0.87951669  0.23555518    -0.26000
C4332       C  0.70929904  0.86683312  0.22844815    -0.14100
C4333       C  0.71035472  0.84134924  0.21546154     0.36500
C4334       C  0.73549886  0.82838561  0.21178306    -0.25500
C4335       C  0.75992772  0.83996318  0.22075765    -0.14700
C4336       C  0.75900559  0.86649681  0.23177653     0.37600
N4337       N  0.78351566  0.87973167  0.24020732    -0.89000
H4338       H  0.73270445  0.89899768  0.24558181     0.18700
H4339       H  0.73575254  0.80870585  0.20212523     0.18700
N4340       N  0.68637708  0.82797531  0.20573343    -0.88000
H4341       H  0.77898559  0.89809447  0.24976303     0.36100
H4342       H  0.79410782  0.88478971  0.22273374     0.41200
H4343       H  0.66874750  0.83938710  0.20930592     0.40800
H4344       H  0.68472111  0.80967912  0.21628125     0.35700
C4345       C  0.66294929  0.81660730  0.26745365    -0.26000
C4346       C  0.67973729  0.83859228  0.27282110    -0.14100
C4347       C  0.70181497  0.83560624  0.29122667     0.36500
C4348       C  0.70661374  0.81038443  0.30362466    -0.25500
C4349       C  0.68943059  0.78857675  0.29844561    -0.14700
C4350       C  0.66707278  0.79178874  0.28041446     0.37600
N4351       N  0.64795855  0.77059915  0.27502746    -0.89000
H4352       H  0.64592355  0.81912315  0.25350557     0.18700
H4353       H  0.72382154  0.80777870  0.31736396     0.18700
N4354       N  0.71893898  0.85778621  0.29858334    -0.88000
H4355       H  0.62884283  0.77757866  0.28121814     0.36100
H4356       H  0.65214859  0.75318681  0.28647782     0.41200
H4357       H  0.71248308  0.87584100  0.28931174     0.40800
H4358       H  0.73846841  0.85336675  0.29157071     0.35700
C4359       C  0.68209871  0.94807691  0.22194268    -0.26000
C4360       C  0.67624713  0.92205506  0.21272803    -0.14100
C4361       C  0.67716422  0.91769282  0.18441619     0.36500
C4362       C  0.68516941  0.93864627  0.16659472    -0.25500
C4363       C  0.69344148  0.96438092  0.17581540    -0.14700
C4364       C  0.69019942  0.96913957  0.20446241     0.37600
N4365       N  0.69552999  0.99463460  0.21741222    -0.89000
H4366       H  0.68073422  0.95214639  0.24342677     0.18700
H4367       H  0.68421651  0.93455978  0.14526473     0.18700
N4368       N  0.66936303  0.89237589  0.17291811    -0.88000
H4369       H  0.67742340  0.00154507  0.22606199     0.36100
H4370       H  0.70139409  0.00966437  0.20409695     0.41200
H4371       H  0.64984473  0.88783063  0.17953153     0.40800
H4372       H  0.68287541  0.87738074  0.17991577     0.35700
C4373       C  0.60652788  0.85318108  0.27780393    -0.26000
C4374       C  0.62915399  0.86671702  0.28834662    -0.14100
C4375       C  0.63552966  0.86275985  0.31635402     0.36500
C4376       C  0.61923264  0.84584651  0.33261462    -0.25500
C4377       C  0.59683301  0.83188902  0.32186092    -0.14700
C4378       C  0.59100354  0.83547173  0.29380743     0.37600
N4379       N  0.57033946  0.81986442  0.28085812    -0.89000
H4380       H  0.60207081  0.85470629  0.25631369     0.18700
H4381       H  0.62416853  0.84363676  0.35393473     0.18700
N4382       N  0.65823476  0.87574537  0.32914061    -0.88000
H4383       H  0.57942740  0.80832926  0.26564392     0.36100
H4384       H  0.55634818  0.83330038  0.27168346     0.41200
H4385       H  0.66852864  0.88804085  0.31556863     0.40800
H4386       H  0.67191154  0.86058545  0.33567153     0.35700
C4387       C  0.60940272  0.92659340  0.22814759    -0.26000
C4388       C  0.62427657  0.92111451  0.25191084    -0.14100
C4389       C  0.61659223  0.93370778  0.27612599     0.36500
C4390       C  0.59319349  0.95016599  0.27665249    -0.25500
C4391       C  0.57703404  0.95447829  0.25330339    -0.14700
C4392       C  0.58589771  0.94295614  0.22849058     0.37600
N4393       N  0.57133350  0.94669353  0.20344538    -0.89000
H4394       H  0.61543513  0.91716109  0.20934530     0.18700
H4395       H  0.58744877  0.95916900  0.29573788     0.18700
N4396       N  0.63265010  0.93003195  0.30025736    -0.88000
H4397       H  0.57005809  0.96741341  0.19900435     0.36100
H4398       H  0.55185030  0.93880748  0.20534059     0.41200
H4399       H  0.62016431  0.92212567  0.31522961     0.40800
H4400       H  0.63908117  0.94908083  0.30666192     0.35700
C4401       C  0.33589803  0.83628090  0.27398423    -0.26000
C4402       C  0.35709275  0.82630023  0.25781101    -0.14100
C4403       C  0.35088842  0.81297218  0.23343808     0.36500
C4404       C  0.32374685  0.81059691  0.22539732    -0.25500
C4405       C  0.30237922  0.82136629  0.24088452    -0.14700
C4406       C  0.30857180  0.83371346  0.26591888     0.37600
N4407       N  0.28781043  0.84469405  0.28291250    -0.89000
H4408       H  0.34074893  0.84667508  0.29264435     0.18700
H4409       H  0.31934608  0.80064480  0.20636366     0.18700
N4410       N  0.37155911  0.80203871  0.21611760    -0.88000
H4411       H  0.27506141  0.82897675  0.28863935     0.36100
H4412       H  0.27639188  0.85897993  0.27174417     0.41200
H4413       H  0.39102465  0.80491715  0.22409329     0.40800
H4414       H  0.37047039  0.81274454  0.19782180     0.35700
C4415       C  0.39821502  0.76604942  0.27253483    -0.26000
C4416       C  0.39360217  0.78847429  0.28907878    -0.14100
C4417       C  0.37519298  0.78741172  0.31040574     0.36500
C4418       C  0.36049440  0.76388085  0.31419678    -0.25500
C4419       C  0.36430668  0.74153575  0.29715301    -0.14700
C4420       C  0.38373050  0.74229137  0.27641099     0.37600
N4421       N  0.38784783  0.71951369  0.25879356    -0.89000
H4422       H  0.41164806  0.76771168  0.25545003     0.18700
H4423       H  0.34603660  0.76297519  0.33053514     0.18700
N4424       N  0.37061992  0.81076468  0.32714628    -0.88000
H4425       H  0.40307728  0.72350577  0.24481452     0.36100
H4426       H  0.36987864  0.71688769  0.24765082     0.41200
H4427       H  0.38872682  0.81447097  0.33770034     0.40800
H4428       H  0.35586754  0.80679936  0.34162518     0.35700
C4429       C  0.36931105  0.89631332  0.25744785    -0.26000
C4430       C  0.38589273  0.87757527  0.24369395    -0.14100
C4431       C  0.38651549  0.87928895  0.21497487     0.36500
C4432       C  0.37017924  0.89889201  0.20107028    -0.25500
C4433       C  0.35355719  0.91762738  0.21484842    -0.14700
C4434       C  0.35333856  0.91623839  0.24350462     0.37600
N4435       N  0.33603834  0.93438112  0.25837977    -0.89000
H4436       H  0.36802451  0.89473191  0.27925180     0.18700
H4437       H  0.37062482  0.89962785  0.17917382     0.18700
N4438       N  0.40299860  0.86119703  0.19912895    -0.88000
H4439       H  0.33813062  0.93083406  0.27917968     0.36100
H4440       H  0.31591339  0.93001281  0.25317421     0.41200
H4441       H  0.41464119  0.84808757  0.21137293     0.40800
H4442       H  0.41684546  0.87299153  0.18857750     0.35700
C4443       C  0.45598324  0.82666451  0.32683283    -0.26000
C4444       C  0.45081650  0.81512508  0.30133445    -0.14100
C4445       C  0.46842219  0.79358520  0.29329435     0.36500
C4446       C  0.48878010  0.78323165  0.31135474    -0.25500
C4447       C  0.49228432  0.79287306  0.33808155    -0.14700
C4448       C  0.47694768  0.81673037  0.34456898     0.37600
N4449       N  0.48320393  0.83159900  0.36872801    -0.89000
H4450       H  0.44372814  0.84386885  0.33299248     0.18700
H4451       H  0.50284047  0.76830217  0.30357433     0.18700
N4452       N  0.46730417  0.78244045  0.26650804    -0.88000
H4453       H  0.47022068  0.84844878  0.37063268     0.36100
H4454       H  0.50283275  0.83912497  0.36676341     0.41200
H4455       H  0.45294310  0.79255392  0.25428194     0.40800
H4456       H  0.46133317  0.76226545  0.26821325     0.35700
C4457       C  0.46224390  0.87542752  0.25197710    -0.26000
C4458       C  0.44327487  0.87279770  0.27258201    -0.14100
C4459       C  0.43970907  0.89298963  0.29231149     0.36500
C4460       C  0.45478615  0.91625066  0.29028189    -0.25500
C4461       C  0.47223692  0.91993132  0.26851904    -0.14700
C4462       C  0.47695496  0.89920570  0.24967923     0.37600
N4463       N  0.49614977  0.90265351  0.22827562    -0.89000
H4464       H  0.46452692  0.85953891  0.23705007     0.18700
H4465       H  0.45156116  0.93227145  0.30491020     0.18700
N4466       N  0.42040478  0.89111824  0.31389417    -0.88000
H4467       H  0.49700542  0.88534751  0.21616049     0.36100
H4468       H  0.51540900  0.90456495  0.23720705     0.41200
H4469       H  0.40970748  0.87303961  0.31344199     0.40800
H4470       H  0.40602116  0.90675558  0.31119225     0.35700
C4471       C  0.48408849  0.26107357  0.28814342    -0.26000
C4472       C  0.48741678  0.26899442  0.31523132    -0.14100
C4473       C  0.49462401  0.29587019  0.32094062     0.36500
C4474       C  0.50125934  0.31327720  0.29949986    -0.25500
C4475       C  0.50167209  0.30396929  0.27267932    -0.14700
C4476       C  0.49175456  0.27791706  0.26683649     0.37600
N4477       N  0.49049107  0.26736204  0.23977969    -0.89000
H4478       H  0.47828362  0.24044938  0.28369656     0.18700
H4479       H  0.50684705  0.33386668  0.30384097     0.18700
N4480       N  0.49744862  0.30458299  0.34850557    -0.88000
H4481       H  0.50377102  0.25063139  0.23897387     0.36100
H4482       H  0.49741072  0.28124580  0.22557491     0.41200
H4483       H  0.47805866  0.30478197  0.35692125     0.40800
H4484       H  0.50427853  0.32453395  0.34927175     0.35700
C4485       C  0.47883285  0.23492124  0.43472747    -0.26000
C4486       C  0.46620063  0.21778876  0.41549927    -0.14100
C4487       C  0.43733409  0.21865853  0.41508227     0.36500
C4488       C  0.42298087  0.23056190  0.43684154    -0.25500
C4489       C  0.43615566  0.24487807  0.45768013    -0.14700
C4490       C  0.46466752  0.24760159  0.45598145     0.37600
N4491       N  0.47996983  0.26401625  0.47447479    -0.89000
H4492       H  0.50023559  0.23918510  0.43299642     0.18700
H4493       H  0.40102879  0.22959156  0.43689305     0.18700
N4494       N  0.42246359  0.21064725  0.39141391    -0.88000
H4495       H  0.49287989  0.25105691  0.48567963     0.36100
H4496       H  0.46751407  0.27410481  0.48818158     0.41200
H4497       H  0.42785596  0.22352385  0.37558048     0.40800
H4498       H  0.40152986  0.21330818  0.39403804     0.35700
C4499       C  0.56426128  0.22206697  0.46218909    -0.26000
C4500       C  0.57138227  0.20001845  0.44546954    -0.14100
C4501       C  0.59858551  0.19045911  0.44550972     0.36500
C4502       C  0.61804143  0.20368357  0.46141175    -0.25500
C4503       C  0.61067917  0.22558032  0.47784580    -0.14700
C4504       C  0.58360084  0.23481945  0.47848130     0.37600
N4505       N  0.57593810  0.25744302  0.49511552    -0.89000
H4506       H  0.54374788  0.23023645  0.46188718     0.18700
H4507       H  0.63906195  0.19674762  0.46124180     0.18700
N4508       N  0.60633311  0.16740084  0.42954657    -0.88000
H4509       H  0.55504639  0.26147601  0.49347590     0.36100
H4510       H  0.58569613  0.27459261  0.48782538     0.41200
H4511       H  0.59616119  0.15061194  0.43715788     0.40800
H4512       H  0.62714752  0.16318010  0.43172414     0.35700
C4513       C  0.27994238  0.12125211  0.27433726    -0.26000
C4514       C  0.30162955  0.12472794  0.25680481    -0.14100
C4515       C  0.29829643  0.14232861  0.23421201     0.36500
C4516       C  0.27319422  0.15560308  0.22955738    -0.25500
C4517       C  0.25116790  0.15185123  0.24692319    -0.14700
C4518       C  0.25490436  0.13454079  0.26976107     0.37600
N4519       N  0.23346197  0.13049477  0.28865221    -0.89000
H4520       H  0.28271478  0.10842565  0.29204805     0.18700
H4521       H  0.27072229  0.16828766  0.21170993     0.18700
N4522       N  0.31941470  0.14611040  0.21484875    -0.88000
H4523       H  0.24036307  0.13642255  0.30779209     0.36100
H4524       H  0.22936053  0.10977023  0.28942005     0.41200
H4525       H  0.33633715  0.13382072  0.21927392     0.40800
H4526       H  0.32542201  0.16629720  0.21597707     0.35700
C4527       C  0.33068613  0.16653272  0.30506281    -0.26000
C4528       C  0.34638966  0.15530535  0.28431636    -0.14100
C4529       C  0.36279217  0.17231344  0.26847578     0.36500
C4530       C  0.36366138  0.19986379  0.27425465    -0.25500
C4531       C  0.34776533  0.21144270  0.29464538    -0.14700
C4532       C  0.33095633  0.19446671  0.31024558     0.37600
N4533       N  0.31456836  0.20473922  0.33177879    -0.89000
H4534       H  0.31817088  0.15350330  0.31728079     0.18700
H4535       H  0.37633895  0.21253348  0.26182451     0.18700
N4536       N  0.37875879  0.16259997  0.24624480    -0.88000
H4537       H  0.29979757  0.21801283  0.32370581     0.36100
H4538       H  0.32702692  0.21530612  0.34524926     0.41200
H4539       H  0.37570967  0.14212038  0.24248286     0.40800
H4540       H  0.37224259  0.17294874  0.22878021     0.35700
C4541       C  0.39015409  0.11556083  0.33043035    -0.26000
C4542       C  0.39205095  0.11565749  0.30218006    -0.14100
C4543       C  0.41691764  0.12177270  0.29015220     0.36500
C4544       C  0.43845615  0.13085459  0.30629253    -0.25500
C4545       C  0.43628477  0.13240162  0.33464935    -0.14700
C4546       C  0.41239507  0.12250750  0.34684060     0.37600
N4547       N  0.41052321  0.11762809  0.37540750    -0.89000
H4548       H  0.37150829  0.10911840  0.33979762     0.18700
H4549       H  0.45656026  0.13763396  0.29627168     0.18700
N4550       N  0.42036061  0.11909252  0.26156755    -0.88000
H4551       H  0.39761590  0.13242079  0.38356314     0.36100
H4552       H  0.42952053  0.11851008  0.38498701     0.41200
H4553       H  0.43598857  0.10489406  0.25839559     0.40800
H4554       H  0.42679249  0.13769695  0.25395018     0.35700
C4555       C  0.31383914  0.01877791  0.23315497    -0.26000
C4556       C  0.30409750  0.02605049  0.20715129    -0.14100
C4557       C  0.29738371  0.05391704  0.20311656     0.36500
C4558       C  0.30919640  0.07323373  0.22004588    -0.25500
C4559       C  0.32299874  0.06587991  0.24407893    -0.14700
C4560       C  0.32299139  0.03813377  0.25172806     0.37600
N4561       N  0.33035523  0.02884877  0.27846961    -0.89000
H4562       H  0.31288746  0.99802197  0.23997067     0.18700
H4563       H  0.30688697  0.09413420  0.21421056     0.18700
N4564       N  0.27629570  0.06333657  0.18478705    -0.88000
H4565       H  0.34842693  0.01750763  0.27721190     0.36100
H4566       H  0.33332025  0.04485839  0.29183312     0.41200
H4567       H  0.26690040  0.04764494  0.17442385     0.40800
H4568       H  0.28435236  0.07703467  0.17098258     0.35700
C4569       C  0.39609966  0.05303335  0.29563652    -0.26000
C4570       C  0.38317314  0.06180213  0.27162037    -0.14100
C4571       C  0.39282922  0.05220316  0.24675610     0.36500
C4572       C  0.41606267  0.03538076  0.24625095    -0.25500
C4573       C  0.43063668  0.02856834  0.27014772    -0.14700
C4574       C  0.41981645  0.03707805  0.29527889     0.37600
N4575       N  0.43264394  0.03079038  0.32076984    -0.89000
H4576       H  0.38844784  0.05984347  0.31494549     0.18700
H4577       H  0.42344877  0.02884930  0.22674458     0.18700
N4578       N  0.38015316  0.06073498  0.22184776    -0.88000
H4579       H  0.45185736  0.03952748  0.32141971     0.36100
H4580       H  0.43446402  0.00973708  0.32280010     0.41200
H4581       H  0.37399681  0.04342092  0.21144884     0.40800
H4582       H  0.39468991  0.07047777  0.21018945     0.35700
C4583       C  0.68924278  0.14367646  0.27162136    -0.26000
C4584       C  0.67121890  0.14322214  0.24932355    -0.14100
C4585       C  0.68150506  0.14860720  0.22321192     0.36500
C4586       C  0.70946022  0.15346718  0.22023404    -0.25500
C4587       C  0.72696808  0.15566498  0.24280997    -0.14700
C4588       C  0.71657135  0.15103508  0.26886317     0.37600
N4589       N  0.73372007  0.15371048  0.29244325    -0.89000
H4590       H  0.68149858  0.13930143  0.29154005     0.18700
H4591       H  0.71715855  0.15762102  0.20020806     0.18700
N4592       N  0.66420988  0.15071121  0.19960409    -0.88000
H4593       H  0.72329525  0.14805569  0.30984080     0.36100
H4594       H  0.73784810  0.17429537  0.29474058     0.41200
H4595       H  0.64376732  0.14972940  0.20473936     0.40800
H4596       H  0.66653290  0.17012081  0.19145207     0.35700
C4597       C  0.64454420  0.19893310  0.26249270    -0.26000
C4598       C  0.63785371  0.17968597  0.28212328    -0.14100
C4599       C  0.64761580  0.18153600  0.30892897     0.36500
C4600       C  0.66514978  0.20237953  0.31512230    -0.25500
C4601       C  0.67328833  0.22037839  0.29491817    -0.14700
C4602       C  0.66246819  0.21921346  0.26860111     0.37600
N4603       N  0.66908717  0.23846125  0.24797635    -0.89000
H4604       H  0.63707408  0.19706293  0.24183971     0.18700
H4605       H  0.67296104  0.20426054  0.33563731     0.18700
N4606       N  0.64195760  0.16183806  0.32956672    -0.88000
H4607       H  0.69003865  0.23744306  0.24476803     0.36100
H4608       H  0.66395326  0.25790174  0.25476321     0.41200
H4609       H  0.63008434  0.14610514  0.32225869     0.40800
H4610       H  0.63065210  0.17164012  0.34450170     0.35700
C4611       C  0.62081667  0.09734570  0.20138590    -0.26000
C4612       C  0.63453645  0.09871945  0.22641501    -0.14100
C4613       C  0.65790678  0.08252165  0.23106166     0.36500
C4614       C  0.66837485  0.06684209  0.21006530    -0.25500
C4615       C  0.65560523  0.06652746  0.18458732    -0.14700
C4616       C  0.63107872  0.08130863  0.18033793     0.37600
N4617       N  0.61651166  0.08092910  0.15496920    -0.89000
H4618       H  0.60269500  0.10969928  0.19781249     0.18700
H4619       H  0.68676537  0.05493887  0.21353774     0.18700
N4620       N  0.67100133  0.08184288  0.25710760    -0.88000
H4621       H  0.59751457  0.07247709  0.15850641     0.36100
H4622       H  0.62625312  0.06838037  0.14103454     0.41200
H4623       H  0.69128801  0.08726269  0.25464243     0.40800
H4624       H  0.67090522  0.06184003  0.26418805     0.35700
C4625       C  0.56943571  0.13576599  0.31380379    -0.26000
C4626       C  0.58062708  0.15442984  0.29547595    -0.14100
C4627       C  0.57427523  0.18221234  0.29937981     0.36500
C4628       C  0.55919460  0.19035415  0.32185379    -0.25500
C4629       C  0.54473322  0.17196801  0.33797555    -0.14700
C4630       C  0.55163638  0.14393848  0.33469488     0.37600
N4631       N  0.54245939  0.12320486  0.35279485    -0.89000
H4632       H  0.57502804  0.11453115  0.31243638     0.18700
H4633       H  0.55852911  0.21177891  0.32602170     0.18700
N4634       N  0.58069808  0.20281270  0.27995896    -0.88000
H4635       H  0.52989172  0.11024094  0.34181824     0.36100
H4636       H  0.53123792  0.13107784  0.36873484     0.41200
H4637       H  0.58810058  0.19458774  0.26204844     0.40800
H4638       H  0.59519541  0.21556660  0.28852540     0.35700
C4639       C  0.56950403  0.05572140  0.26986687    -0.26000
C4640       C  0.54371054  0.06016687  0.25842885    -0.14100
C4641       C  0.53604697  0.08553738  0.24749761     0.36500
C4642       C  0.55496560  0.10627191  0.24786321    -0.25500
C4643       C  0.58099969  0.10142580  0.25883461    -0.14700
C4644       C  0.58828544  0.07625555  0.27038325     0.37600
N4645       N  0.61465106  0.07182062  0.28271135    -0.89000
H4646       H  0.57499341  0.03604833  0.27840820     0.18700
H4647       H  0.54956438  0.12598133  0.23943905     0.18700
N4648       N  0.50931815  0.09076092  0.23667261    -0.88000
H4649       H  0.61673953  0.05195565  0.29000110     0.36100
H4650       H  0.61611494  0.08456847  0.29948580     0.41200
H4651       H  0.49523363  0.08674336  0.25179389     0.40800
H4652       H  0.50590461  0.07740065  0.22068256     0.35700
loop_ 
_geom_bond_atom_site_label_1 
_geom_bond_atom_site_label_2 
_geom_bond_distance 
_geom_bond_site_symmetry_2 
_ccdc_geom_bond_type 
N1            C5   1.341       .  A
N1            C2   1.352       .  A
N1         C4584   1.454       .  S
C2            C3   1.389       .  A
C2         C4598   1.435       .  S
C3            C4   1.389       .  A
C3         C4626   1.515       .  S
C4            C5   1.392       .  A
C4         C4643   1.443       .  S
C5         C4612   1.478       .  S
N6           C10   1.366       .  A
N6            C7   1.351       .  A
N6         C4514   1.441       .  S
C7            C8   1.377       .  A
C7         C4528   1.475       .  S
C8            C9   1.384       .  A
C8         C4542   1.478       .  S
C9           C10   1.406       .  A
C9         C4570   1.484       .  S
C10        C4559   1.500       .  S
C11          C13   1.563       .  S
C11          C15   1.551       .  S
C11          C14   1.546       .  S
C11        C4486   1.572       .  S
C12          C16   1.537       .  S
C12          C18   1.525       .  S
C12          C17   1.536       .  S
C12        C4629   1.567       .  S
C13          C21   1.385       .  A
C13          C16   1.408       .  A
C14          C25   1.391       .  A
C14          C17   1.407       .  A
C15          C29   1.372       .  A
C15          C18   1.397       .  A
C16          C19   1.369       .  A
C17          C23   1.373       .  A
C18          C26   1.375       .  A
C19          N20   1.357       .  A
C19          H32   1.081       .  S
N20          C21   1.363       .  A
N20        C4545   1.447       .  S
C21          H22   1.074       .  S
C23          N24   1.343       .  A
C23          H33   1.081       .  S
N24          C25   1.355       .  A
N24        C4472   1.435       .  S
C25          H31   1.082       .  S
C26          N27   1.359       .  A
C26          H28   1.082       .  S
N27          C29   1.355       .  A
N27        C4500   1.442       .  S
C29          H30   1.080       .  S
N34          C38   1.339       .  A
N34          C35   1.357       .  A
N34        C4402   1.437       .  S
C35          C36   1.388       .  A
C35        C4416   1.443       .  S
C36          C37   1.396       .  A
C36        C4444   1.527       .  S
C37          C38   1.397       .  A
C37        C4458   1.428       .  S
C38        C4430   1.514       .  S
N39          C43   1.346       .  A
N39          C40   1.356       .  A
N39        C4346   1.433       .  S
C40          C41   1.400       .  A
C40        C4332   1.481       .  S
C41          C42   1.415       .  A
C41        C4360   1.518       .  S
C42          C43   1.405       .  A
C42        C4388   1.474       .  S
C43        C4374   1.519       .  S
C44          C46   1.540       .  S
C44          C48   1.555       .  S
C44          C47   1.554       .  S
C44        C4304   1.592       .  S
C45          C49   1.547       .  S
C45          C51   1.547   1_565  S
C45          C50   1.531       .  S
C45        C4363   1.586       .  S
C46          C54   1.366   1_545  A
C46          C49   1.412   1_545  A
C47          C58   1.390       .  A
C47          C50   1.399   1_545  A
C48          C62   1.387       .  A
C48          C51   1.418       .  A
C49          C52   1.386       .  A
C50          C56   1.364       .  A
C51          C59   1.372       .  A
C52          N53   1.356       .  A
C52          H65   1.079       .  S
N53          C54   1.346       .  A
N53        C4318   1.424       .  S
C54          H55   1.082   1_565  S
C56          N57   1.348   1_565  A
C56          H66   1.082       .  S
N57          C58   1.365       .  A
N57        C4290   1.440       .  S
C58          H64   1.081       .  S
C59          N60   1.349       .  A
C59          H61   1.082       .  S
N60          C62   1.359       .  A
N60        C4615   1.431       .  S
C62          H63   1.082       .  S
C67          C69   1.578       .  S
C67          C71   1.536       .  S
C67          C70   1.578       .  S
C67        C4276   1.595       .  S
C68          C72   1.543       .  S
C68          C74   1.545       .  S
C68          C73   1.558       .  S
C68        C4447   1.581       .  S
C69          C77   1.408       .  A
C69          C72   1.407       .  A
C70          C81   1.402       .  A
C70          C73   1.413       .  A
C71          C85   1.373       .  A
C71          C74   1.391       .  A
C72          C75   1.375       .  A
C73          C79   1.387       .  A
C74          C82   1.388       .  A
C75          N76   1.359       .  A
C75          H88   1.081       .  S
N76          C77   1.378       .  A
N76        C4377   1.470       .  S
C77          H78   1.082       .  S
C79          N80   1.358       .  A
C79          H89   1.080       .  S
N80          C81   1.369       .  A
N80        C4251   1.460       .  S
C81          H87   1.082       .  S
C82          N83   1.366       .  A
C82          H84   1.081       .  S
N83          C85   1.355       .  A
N83        C4262   1.451       .  S
C85          H86   1.081       .  S
C90          C92   1.572   1_545  S
C90          C94   1.561       .  S
C90          C93   1.543   1_545  S
C90        C4556   1.541       .  S
C91          C95   1.556       .  S
C91          C97   1.534       .  S
C91          C96   1.552       .  S
C91        C4237   1.539       .  S
C92         C100   1.397       .  A
C92          C95   1.400       .  A
C93         C104   1.384   1_565  A
C93          C96   1.390       .  A
C94         C108   1.406       .  A
C94          C97   1.383   1_545  A
C95          C98   1.395       .  A
C96         C102   1.390       .  A
C97         C105   1.377   1_565  A
C98          N99   1.364       .  A
C98         H111   1.082       .  S
N99         C100   1.363       .  A
N99        C4433   1.464       .  S
C100        H101   1.080       .  S
C102        N103   1.365       .  A
C102        H112   1.082       .  S
N103        C104   1.363   1_565  A
N103       C4206   1.458       .  S
C104        H110   1.082       .  S
C105        N106   1.348       .  A
C105        H107   1.082   1_545  S
N106        C108   1.367       .  A
N106       C4223   1.453       .  S
C108        H109   1.078       .  S
N113        C117   1.349       .  A
N113        C114   1.343       .  A
N113       C4136   1.442       .  S
C114        C115   1.384       .  A
C114       C4167   1.461       .  S
C115        C116   1.378       .  A
C115       C4195   1.461       .  S
C116        C117   1.381       .  A
C116       C4178   1.479       .  S
C117       C4153   1.452       .  S
N118        C122   1.345       .  A
N118        C119   1.362       .  A
N118       C4069   1.446       .  S
C119        C120   1.395       .  A
C119       C4083   1.447       .  S
C120        C121   1.412       .  A
C120       C4094   1.550       .  S
C121        C122   1.410       .  A
C121       C4125   1.449       .  S
C122       C4108   1.526       .  S
C123        C125   1.530       .  S
C123        C127   1.547       .  S
C123        C126   1.566       .  S
C123       C4052   1.610       .  S
C124        C128   1.546       .  S
C124        C130   1.546       .  S
C124        C129   1.555       .  S
C124       C4097   1.605       .  S
C125        C133   1.361       .  A
C125        C128   1.407       .  A
C126        C137   1.390       .  A
C126        C129   1.415       .  A
C127        C141   1.379       .  A
C127        C130   1.424       .  A
C128        C131   1.384       .  A
C129        C135   1.382       .  A
C130        C138   1.375       .  A
C131        N132   1.357       .  A
C131        H144   1.082       .  S
N132        C133   1.351       .  A
N132       C4041   1.431       .  S
C133        H134   1.082       .  S
C135        N136   1.362       .  A
C135        H145   1.082       .  S
N136        C137   1.363       .  A
N136       C4024   1.453       .  S
C137        H143   1.082       .  S
C138        N139   1.352       .  A
C138        H140   1.082       .  S
N139        C141   1.351       .  A
N139       C4181   1.427       .  S
C141        H142   1.082       .  S
N146        C150   1.346       .  A
N146        C147   1.366       .  A
N146       C3954   1.445       .  S
C147        C148   1.390       .  A
C147       C3968   1.458       .  S
C148        C149   1.414       .  A
C148       C3996   1.543       .  S
C149        C150   1.406       .  A
C149       C4010   1.450       .  S
C150       C3982   1.523       .  S
N151        C155   1.346       .  A
N151        C152   1.354       .  A
N151       C3887   1.447       .  S
C152        C153   1.391       .  A
C152       C3898   1.443       .  S
C153        C154   1.400       .  A
C153       C3929   1.529       .  S
C154        C155   1.399       .  A
C154       C3940   1.457       .  S
C155       C3915   1.491       .  S
C156        C158   1.529       .  S
C156        C160   1.539       .  S
C156        C159   1.541       .  S
C156       C3856   1.541       .  S
C157        C161   1.528       .  S
C157        C163   1.536       .  S
C157        C162   1.560       .  S
C157       C3912   1.546   1_455  S
C158        C166   1.369       .  A
C158        C161   1.389       .  A
C159        C170   1.380       .  A
C159        C162   1.393       .  A
C160        C174   1.384       .  A
C160        C163   1.416       .  A
C161        C164   1.376   1_455  A
C162        C168   1.384       .  A
C163        C171   1.369       .  A
C164        N165   1.357   1_655  A
C164        H177   1.082       .  S
N165        C166   1.349       .  A
N165       C3870   1.423   1_455  S
C166        H167   1.083       .  S
C168        N169   1.365       .  A
C168        H178   1.079       .  S
N169        C170   1.362       .  A
N169       C3842   1.457       .  S
C170        H176   1.081       .  S
C171        N172   1.339       .  A
C171        H173   1.080       .  S
N172        C174   1.347       .  A
N172       C4164   1.419       .  S
C174        H175   1.083       .  S
C179        C181   1.567       .  S
C179        C183   1.536       .  S
C179        C182   1.566       .  S
C179       C3828   1.610       .  S
C180        C184   1.555       .  S
C180        C186   1.554       .  S
C180        C185   1.565       .  S
C180       C3999   1.600       .  S
C181        C189   1.399       .  A
C181        C184   1.417       .  A
C182        C193   1.390       .  A
C182        C185   1.419       .  A
C183        C197   1.375       .  A
C183        C186   1.401       .  A
C184        C187   1.392       .  A
C185        C191   1.387       .  A
C186        C194   1.395       .  A
C187        N188   1.360       .  A
C187        H200   1.082       .  S
N188        C189   1.365       .  A
N188       C3926   1.462       .  S
C189        H190   1.082       .  S
C191        N192   1.360       .  A
C191        H201   1.080       .  S
N192        C193   1.362       .  A
N192       C3800   1.451       .  S
C193        H199   1.081       .  S
C194        N195   1.366       .  A
C194        H196   1.081       .  S
N195        C197   1.355       .  A
N195       C3814   1.459       .  S
C197        H198   1.080       .  S
C202        C204   1.533       .  S
C202        C206   1.552   1_655  S
C202        C205   1.555       .  S
C202       C3985   1.591       .  S
C203        C207   1.547       .  S
C203        C209   1.592       .  S
C203        C208   1.579       .  S
C203       C3772   1.624       .  S
C204        C212   1.385       .  A
C204        C207   1.389   1_655  A
C205        C216   1.382       .  A
C205        C208   1.411   1_655  A
C206        C220   1.379       .  A
C206        C209   1.425       .  A
C207        C210   1.378   1_455  A
C208        C214   1.402       .  A
C209        C217   1.418       .  A
C210        N211   1.357       .  A
C210        H223   1.080   1_655  S
N211        C212   1.358       .  A
N211       C3786   1.449       .  S
C212        H213   1.080       .  S
C214        N215   1.372       .  A
C214        H224   1.082       .  S
N215        C216   1.363   1_455  A
N215       C3758   1.473       .  S
C216        H222   1.075       .  S
C217        N218   1.379       .  A
C217        H219   1.082       .  S
N218        C220   1.351       .  A
N218       C4111   1.470       .  S
C220        H221   1.081       .  S
N225        C229   1.355       .  A
N225        C226   1.353       .  A
N225       C3691   1.450       .  S
C226        C227   1.375       .  A
C226       C3702   1.457       .  S
C227        C228   1.365       .  A
C227       C3730   1.460       .  S
C228        C229   1.382       .  A
C228       C3744   1.473       .  S
C229       C3716   1.454       .  S
N230        C234   1.351       .  A
N230        C231   1.368       .  A
N230       C3621   1.455       .  S
C231        C232   1.416       .  A
C231       C3632   1.465       .  S
C232        C233   1.424       .  A
C232       C3646   1.577       .  S
C233        C234   1.415       .  A
C233       C3677   1.455       .  S
C234       C3660   1.538       .  S
C235        C237   1.545       .  S
C235        C239   1.564       .  S
C235        C238   1.547       .  S
C235       C3604   1.625       .  S
C236        C240   1.538       .  S
C236        C242   1.530       .  S
C236        C241   1.564       .  S
C236       C3649   1.622       .  S
C237        C245   1.370       .  A
C237        C240   1.412       .  A
C238        C249   1.380       .  A
C238        C241   1.430       .  A
C239        C253   1.378       .  A
C239        C242   1.418       .  A
C240        C243   1.370       .  A
C241        C247   1.390       .  A
C242        C250   1.363       .  A
C243        N244   1.355       .  A
C243        H256   1.083       .  S
N244        C245   1.354       .  A
N244       C3590   1.425       .  S
C245        H246   1.081       .  S
C247        N248   1.356       .  A
C247        H257   1.079       .  S
N248        C249   1.348       .  A
N248       C3576   1.440       .  S
C249        H255   1.083       .  S
C250        N251   1.352       .  A
C250        H252   1.083       .  S
N251        C253   1.360       .  A
N251       C3733   1.434       .  S
C253        H254   1.074       .  S
N258        C262   1.351       .  A
N258        C259   1.363       .  A
N258       C3506   1.432       .  S
C259        C260   1.408       .  A
C259       C3520   1.515       .  S
C260        C261   1.412       .  A
C260       C3548   1.504       .  S
C261        C262   1.395       .  A
C261       C3562   1.480       .  S
C262       C3534   1.509       .  S
N263        C267   1.363       .  A
N263        C264   1.340       .  A
N263       C3450   1.434       .  S
C264        C265   1.400       .  A
C264       C3481   1.526       .  S
C265        C266   1.410       .  A
C265       C3492   1.439       .  S
C266        C267   1.399       .  A
C266       C3464   1.537       .  S
C267       C3436   1.470       .  S
C268        C270   1.539   1_554  S
C268        C272   1.540       .  S
C268        C271   1.560       .  S
C268       C3408   1.607       .  S
C269        C273   1.537       .  S
C269        C275   1.526   1_556  S
C269        C274   1.566       .  S
C269       C3467   1.612       .  S
C270        C278   1.374       .  A
C270        C273   1.420       .  A
C271        C282   1.388       .  A
C271        C274   1.429   1_554  A
C272        C286   1.375       .  A
C272        C275   1.409       .  A
C273        C276   1.369       .  A
C274        C280   1.385       .  A
C275        C283   1.360       .  A
C276        N277   1.340       .  A
C276        H289   1.084       .  S
N277        C278   1.347       .  A
N277       C3422   1.411       .  S
C278        H279   1.082       .  S
C280        N281   1.359       .  A
C280        H290   1.079       .  S
N281        C282   1.360   1_556  A
N281       C3394   1.460   1_556  S
C282        H288   1.082       .  S
C283        N284   1.348       .  A
C283        H285   1.083       .  S
N284        C286   1.353       .  A
N284       C3719   1.414       .  S
C286        H287   1.081       .  S
C291        C293   1.563       .  S
C291        C295   1.567       .  S
C291        C294   1.546       .  S
C291       C3551   1.575       .  S
C292        C296   1.534       .  S
C292        C298   1.570       .  S
C292        C297   1.580       .  S
C292       C3383   1.587       .  S
C293        C301   1.403       .  A
C293        C296   1.394       .  A
C294        C305   1.385       .  A
C294        C297   1.402       .  A
C295        C309   1.391       .  A
C295        C298   1.408       .  A
C296        C299   1.372       .  A
C297        C303   1.405       .  A
C298        C306   1.403       .  A
C299        N300   1.342       .  A
C299        H312   1.081       .  S
N300        C301   1.357       .  A
N300       C3366   1.444       .  S
C301        H302   1.070       .  S
C303        N304   1.375       .  A
C303        H313   1.082       .  S
N304        C305   1.364       .  A
N304       C3352   1.474       .  S
C305        H311   1.079       .  S
C306        N307   1.371       .  A
C306        H308   1.082       .  S
N307        C309   1.360       .  A
N307       C3478   1.468       .  S
C309        H310   1.081       .  S
C314        C316   1.536   1_556  S
C314        C318   1.554       .  S
C314        C317   1.540   1_556  S
C314       C3341   1.578       .  S
C315        C319   1.574       .  S
C315        C321   1.566       .  S
C315        C320   1.565       .  S
C315       C3663   1.591       .  S
C316        C324   1.373       .  A
C316        C319   1.399       .  A
C317        C328   1.379       .  A
C317        C320   1.403       .  A
C318        C332   1.389       .  A
C318        C321   1.411   1_556  A
C319        C322   1.408       .  A
C320        C326   1.392       .  A
C321        C329   1.394   1_554  A
C322        N323   1.377       .  A
C322        H335   1.081       .  S
N323        C324   1.352       .  A
N323       C3327   1.466       .  S
C324        H325   1.079       .  S
C326        N327   1.363       .  A
C326        H336   1.081       .  S
N327        C328   1.358       .  A
N327       C3310   1.450       .  S
C328        H334   1.082   1_554  S
C329        N330   1.365       .  A
C329        H331   1.082   1_556  S
N330        C332   1.363       .  A
N330       C3537   1.465       .  S
C332        H333   1.080       .  S
N337        C341   1.347       .  A
N337        C338   1.351       .  A
N337       C3240   1.425       .  S
C338        C339   1.400       .  A
C338       C3254   1.497       .  S
C339        C340   1.401       .  A
C339       C3268   1.491       .  S
C340        C341   1.387       .  A
C340       C3296   1.474       .  S
C341       C3282   1.490       .  S
N342        C346   1.337       .  A
N342        C343   1.350       .  A
N342       C3184   1.432       .  S
C343        C344   1.381       .  A
C343       C3170   1.450       .  S
C344        C345   1.377       .  A
C344       C3198   1.487       .  S
C345        C346   1.372       .  A
C345       C3229   1.433       .  S
C346       C3212   1.471       .  S
N347        C351   1.356       .  A
N347        C348   1.364       .  A
N347       C3114   1.420       .  S
C348        C349   1.381       .  A
C348       C3100   1.510       .  S
C349        C350   1.396       .  A
C349       C3128   1.485       .  S
C350        C351   1.393       .  A
C350       C3156   1.462       .  S
C351       C3142   1.515       .  S
N352        C356   1.352       .  A
N352        C353   1.369       .  A
N352       C3030   1.416       .  S
C353        C354   1.386       .  A
C353       C3044   1.481       .  S
C354        C355   1.427       .  A
C354       C3072   1.569       .  S
C355        C356   1.423       .  A
C355       C3086   1.428       .  S
C356       C3058   1.589       .  S
C357        C359   1.537       .  S
C357        C361   1.563       .  S
C357        C360   1.596       .  S
C357       C3019   1.651       .  S
C358        C362   1.537       .  S
C358        C364   1.547       .  S
C358        C363   1.592       .  S
C358       C3061   1.648       .  S
C359        C367   1.366       .  A
C359        C362   1.407       .  A
C360        C371   1.413       .  A
C360        C363   1.430       .  A
C361        C375   1.386       .  A
C361        C364   1.421       .  A
C362        C365   1.377       .  A
C363        C369   1.403       .  A
C364        C372   1.368       .  A
C365        N366   1.351       .  A
C365        H378   1.083       .  S
N366        C367   1.349       .  A
N366       C3002   1.415       .  S
C367        H368   1.083       .  S
C369        N370   1.378       .  A
C369        H379   1.074       .  S
N370        C371   1.380       .  A
N370       C2988   1.505       .  S
C371        H377   1.081       .  S
C372        N373   1.361       .  A
C372        H374   1.081       .  S
N373        C375   1.371       .  A
N373       C3131   1.456       .  S
C375        H376   1.080       .  S
C380        C382   1.550   1_556  S
C380        C384   1.568       .  S
C380        C383   1.590   1_556  S
C380       C3075   1.624       .  S
C381        C385   1.541       .  S
C381        C387   1.529       .  S
C381        C386   1.556       .  S
C381       C2974   1.616       .  S
C382        C390   1.388       .  A
C382        C385   1.419       .  A
C383        C394   1.403       .  A
C383        C386   1.424       .  A
C384        C398   1.408       .  A
C384        C387   1.413   1_556  A
C385        C388   1.377       .  A
C386        C392   1.383       .  A
C387        C395   1.363   1_554  A
C388        N389   1.347       .  A
C388        H401   1.078       .  S
N389        C390   1.355       .  A
N389       C3285   1.435       .  S
C390        H391   1.083       .  S
C392        N393   1.359       .  A
C392        H402   1.082       .  S
N393        C394   1.369       .  A
N393       C2946   1.460       .  S
C394        H400   1.078   1_554  S
C395        N396   1.333       .  A
C395        H397   1.080   1_556  S
N396        C398   1.367       .  A
N396       C2960   1.445       .  S
C398        H399   1.082       .  S
C403        C405   1.540       .  S
C403        C407   1.534   1_556  S
C403        C406   1.543       .  S
C403       C3145   1.584       .  S
C404        C408   1.536   1_554  S
C404        C410   1.539       .  S
C404        C409   1.564   1_554  S
C404       C2932   1.585       .  S
C405        C413   1.378       .  A
C405        C408   1.412       .  A
C406        C417   1.378       .  A
C406        C409   1.414       .  A
C407        C421   1.366       .  A
C407        C410   1.406       .  A
C408        C411   1.369       .  A
C409        C415   1.390   1_556  A
C410        C418   1.379       .  A
C411        N412   1.350       .  A
C411        H424   1.081       .  S
N412        C413   1.351       .  A
N412       C2918   1.432       .  S
C413        H414   1.082       .  S
C415        N416   1.357   1_554  A
C415        H425   1.082       .  S
N416        C417   1.351       .  A
N416       C2904   1.437       .  S
C417        H423   1.080       .  S
C418        N419   1.357       .  A
C418        H420   1.082       .  S
N419        C421   1.350       .  A
N419       C3215   1.423       .  S
C421        H422   1.083       .  S
C426        C428   1.562       .  S
C426        C430   1.533       .  S
C426        C429   1.547       .  S
C426       C2879   1.530       .  S
C427        C431   1.543       .  S
C427        C433   1.512       .  S
C427        C432   1.534       .  S
C427       C3271   1.519       .  S
C428        C436   1.393       .  A
C428        C431   1.426       .  A
C429        C440   1.390       .  A
C429        C432   1.388       .  A
C430        C444   1.380       .  A
C430        C433   1.374       .  A
C431        C434   1.382       .  A
C432        C438   1.369       .  A
C433        C441   1.372       .  A
C434        N435   1.350       .  A
C434        H447   1.083       .  S
N435        C436   1.354       .  A
N435       C3201   1.440       .  S
C436        H437   1.083       .  S
C438        N439   1.348       .  A
C438        H448   1.081       .  S
N439        C440   1.362       .  A
N439       C2862   1.435       .  S
C440        H446   1.081       .  S
C441        N442   1.352       .  A
C441        H443   1.083       .  S
N442        C444   1.362       .  A
N442       C2890   1.437       .  S
C444        H445   1.082       .  S
N449        C453   1.360       .  A
N449        C450   1.346       .  A
N449       C2809   1.439       .  S
C450        C451   1.397       .  A
C450       C2820   1.514       .  S
C451        C452   1.399       .  A
C451       C2851   1.430       .  S
C452        C453   1.381       .  A
C452       C2834   1.529       .  S
C453       C2792   1.452       .  S
N454        C458   1.348       .  A
N454        C455   1.355       .  A
N454       C2722   1.450       .  S
C455        C456   1.396       .  A
C455       C2736   1.455       .  S
C456        C457   1.394       .  A
C456       C2767   1.512       .  S
C457        C458   1.397       .  A
C457       C2781   1.470       .  S
C458       C2750   1.483       .  S
N459        C463   1.345       .  A
N459        C460   1.359       .  A
N459       C2652   1.435       .  S
C460        C461   1.381       .  A
C460       C2666   1.449       .  S
C461        C462   1.387       .  A
C461       C2694   1.522       .  S
C462        C463   1.391       .  A
C462       C2711   1.429       .  S
C463       C2680   1.500       .  S
N464        C468   1.352       .  A
N464        C465   1.363       .  A
N464       C2582   1.464       .  S
C465        C466   1.398       .  A
C465       C2596   1.454       .  S
C466        C467   1.402       .  A
C466       C2624   1.529       .  S
C467        C468   1.407       .  A
C467       C2638   1.476       .  S
C468       C2610   1.494       .  S
C469        C471   1.532       .  S
C469        C473   1.537       .  S
C469        C472   1.582       .  S
C469       C2554   1.543       .  S
C470        C474   1.544       .  S
C470        C476   1.562       .  S
C470        C475   1.540       .  S
C470       C2683   1.543       .  S
C471        C479   1.389       .  A
C471        C474   1.387       .  A
C472        C483   1.405       .  A
C472        C475   1.406       .  A
C473        C487   1.376       .  A
C473        C476   1.397       .  A
C474        C477   1.386       .  A
C475        C481   1.377       .  A
C476        C484   1.410       .  A
C477        N478   1.356       .  A
C477        H490   1.082       .  S
N478        C479   1.356       .  A
N478       C2613   1.444       .  S
C479        H480   1.083       .  S
C481        N482   1.353       .  A
C481        H491   1.082       .  S
N482        C483   1.370       .  A
N482       C2540   1.453       .  S
C483        H489   1.080       .  S
C484        N485   1.369       .  A
C484        H486   1.082       .  S
N485        C487   1.346       .  A
N485       C2571   1.458       .  S
C487        H488   1.080       .  S
C492        C494   1.563   1_565  S
C492        C496   1.563       .  S
C492        C495   1.552   1_565  S
C492       C2627   1.590       .  S
C493        C497   1.563       .  S
C493        C499   1.546       .  S
C493        C498   1.549       .  S
C493       C2526   1.587       .  S
C494        C502   1.394       .  A
C494        C497   1.419       .  A
C495        C506   1.383       .  A
C495        C498   1.404       .  A
C496        C510   1.409       .  A
C496        C499   1.408   1_565  A
C497        C500   1.405       .  A
C498        C504   1.384       .  A
C499        C507   1.380       .  A
C500        N501   1.365       .  A
C500        H513   1.082       .  S
N501        C502   1.358       .  A
N501       C2837   1.464       .  S
C502        H503   1.082       .  S
C504        N505   1.354       .  A
C504        H514   1.082       .  S
N505        C506   1.352       .  A
N505       C2498   1.434       .  S
C506        H512   1.079   1_545  S
C507        N508   1.348   1_545  A
C507        H509   1.082       .  S
N508        C510   1.370       .  A
N508       C2512   1.461       .  S
C510        H511   1.082       .  S
C515        C517   1.578   1_545  S
C515        C519   1.577       .  S
C515        C518   1.545       .  S
C515       C2764   1.573       .  S
C516        C520   1.534       .  S
C516        C522   1.535   1_565  S
C516        C521   1.554       .  S
C516       C2470   1.545       .  S
C517        C525   1.405       .  A
C517        C520   1.400       .  A
C518        C529   1.384       .  A
C518        C521   1.394   1_545  A
C519        C533   1.415       .  A
C519        C522   1.402       .  A
C520        C523   1.384       .  A
C521        C527   1.385       .  A
C522        C530   1.378       .  A
C523        N524   1.353       .  A
C523        H536   1.082       .  S
N524        C525   1.369       .  A
N524       C2697   1.457       .  S
C525        H526   1.082       .  S
C527        N528   1.364       .  A
C527        H537   1.082       .  S
N528        C529   1.365   1_565  A
N528       C2456   1.457       .  S
C529        H535   1.082       .  S
C530        N531   1.343       .  A
C530        H532   1.081   1_545  S
N531        C533   1.365       .  A
N531       C2484   1.453       .  S
C533        H534   1.081       .  S
C538        C540   1.551       .  S
C538        C542   1.538       .  S
C538        C541   1.532       .  S
C538       C2823   1.571       .  S
C539        C543   1.551       .  S
C539        C545   1.542       .  S
C539        C544   1.556       .  S
C539       C2428   1.572       .  S
C540        C548   1.391       .  A
C540        C543   1.426       .  A
C541        C552   1.369       .  A
C541        C544   1.399       .  A
C542        C556   1.372       .  A
C542        C545   1.393       .  A
C543        C546   1.377       .  A
C544        C550   1.390       .  A
C545        C553   1.385       .  A
C546        N547   1.347       .  A
C546        H559   1.083       .  S
N547        C548   1.355       .  A
N547       C2442   1.433       .  S
C548        H549   1.082       .  S
C550        N551   1.359       .  A
C550        H560   1.081       .  S
N551        C552   1.348       .  A
N551       C2414   1.432       .  S
C552        H558   1.082       .  S
C553        N554   1.365       .  A
C553        H555   1.079       .  S
N554        C556   1.358       .  A
N554       C2753   1.450       .  S
C556        H557   1.082       .  S
O561       Ni567   1.911       .  S
O561        C582   1.271       .  A
O562       Ni585   1.875       .  S
O562        C571   1.258       .  A
O563       Ni567   1.895       .  S
O563       Ni585   1.880       .  S
O563       Ni579   1.912       .  S
O563        H586   0.966       .  S
C564       C2400   1.461       .  S
C564        O581   1.274       .  A
C564        O573   1.277       .  A
O565       Ni584   1.900       .  S
O565        C571   1.266       .  A
O566       Ni584   1.904       .  S
O566        C568   1.263       .  A
Ni567       O570   1.926       .  S
Ni567       O572   1.912       .  S
C568       C2386   1.465       .  S
C568        O578   1.257       .  A
O569       Ni585   1.871       .  S
O569        C575   1.262       .  A
O570        C575   1.274       .  A
C571       C2372   1.444       .  S
O572        C574   1.273       .  A
O573       Ni584   1.897       .  S
C574       C3117   1.469       .  S
C574        O580   1.267       .  A
C575       C2669   1.437       .  S
H576        O577   0.963       .  S
O577       Ni585   1.891       .  S
O577       Ni579   1.861       .  S
O577       Ni584   1.875       .  S
O578       Ni579   1.888       .  S
Ni579       O583   1.853       .  S
Ni579       O581   1.907       .  S
O580       Ni585   1.914       .  S
C582       C2358   1.435       .  S
C582        O583   1.257       .  A
O587       Ni593   1.887       .  S
O587        C608   1.258       .  A
O588       Ni611   1.894       .  S
O588        C597   1.263       .  A
O589       Ni593   1.879       .  S
O589       Ni611   1.878       .  S
O589       Ni605   1.937       .  S
O589        H612   0.966       .  S
C590       C2316   1.481       .  S
C590        O607   1.288       .  A
C590        O599   1.279       .  A
O591       Ni610   1.901       .  S
O591        C597   1.263       .  A
O592       Ni610   1.898       .  S
O592        C594   1.264       .  A
Ni593       O596   1.906       .  S
Ni593       O598   1.898       .  S
C594       C2344   1.491       .  S
C594        O604   1.280       .  A
O595       Ni611   1.938       .  S
O595        C601   1.284       .  A
O596        C601   1.279       .  A
C597       C2739   1.441       .  S
O598        C600   1.262       .  A
O599       Ni610   1.919       .  S
C600       C3884   1.487       .  S
C600        O606   1.270       .  A
C601       C3047   1.486       .  S
H602        O603   0.967       .  S
O603       Ni611   1.921       .  S
O603       Ni605   1.893       .  S
O603       Ni610   1.886       .  S
O604       Ni605   1.962       .  S
Ni605       O609   1.945       .  S
Ni605       O607   1.947       .  S
O606       Ni611   1.938       .  S
C608       C2330   1.476       .  S
C608        O609   1.276       .  A
N613        C617   1.358       .  A
N613        C614   1.346       .  A
N613       C2459   1.450       .  S
C614        C615   1.396       .  A
C614       C2319   1.493   1_565  S
C615        C616   1.393       .  A
C615       C3873   1.457   1_565  S
C616        C617   1.396       .  A
C616       C2302   1.516       .  S
C617       C2389   1.451       .  S
N618        C622   1.341       .  A
N618        C619   1.353       .  A
N618       C3845   1.450       .  S
C619        C620   1.399       .  A
C619       C2288   1.454       .  S
C620        C621   1.413       .  A
C620       C3338   1.518       .  S
C621        C622   1.397       .  A
C621       C2963   1.487       .  S
C622       C2333   1.483       .  S
O623       Ni629   1.917       .  S
O623        C644   1.269       .  A
O624       Ni647   1.930       .  S
O624        C633   1.268       .  A
O625       Ni629   1.907       .  S
O625       Ni647   1.927       .  S
O625       Ni641   1.942       .  S
O625        H648   0.966       .  S
C626       C2291   1.467       .  S
C626        O643   1.281       .  A
C626        O635   1.279       .  A
O627       Ni646   1.891       .  S
O627        C633   1.262       .  A
O628       Ni646   1.884       .  S
O628        C630   1.261       .  A
Ni629       O632   1.923       .  S
Ni629       O634   1.884       .  S
C630       C2260   1.471       .  S
C630        O640   1.268       .  A
O631       Ni647   1.874       .  S
O631        C637   1.257       .  A
O632        C637   1.263       .  A
C633       C2274   1.474       .  S
O634        C636   1.273       .  A
O635       Ni646   1.906       .  S
C636       C3509   1.483       .  S
C636        O642   1.287       .  A
C637       C2795   1.441       .  S
H638        O639   0.966       .  S
O639       Ni647   1.876       .  S
O639       Ni641   1.868       .  S
O639       Ni646   1.877       .  S
O640       Ni641   1.932       .  S
Ni641       O645   1.906       .  S
Ni641       O643   1.903       .  S
O642       Ni647   1.962       .  S
C644       C4139   1.466       .  S
C644        O645   1.266       .  A
N649        C653   1.351       .  A
N649        C650   1.354       .  A
N649       C2501   1.449       .  S
C650        C651   1.390       .  A
C650       C2246   1.470   1_545  S
C651        C652   1.392       .  A
C651       C2232   1.488   1_545  S
C652        C653   1.388       .  A
C652       C3859   1.475       .  S
C653       C2263   1.471       .  S
O654       Ni660   1.890       .  S
O654        C675   1.256       .  A
O655       Ni678   1.896       .  S
O655        C664   1.262       .  A
O656       Ni660   1.896       .  S
O656       Ni678   1.896       .  S
O656       Ni672   1.912       .  S
O656        H679   0.966       .  S
C657       C2193   1.435       .  S
C657        O674   1.277       .  A
C657        O666   1.276       .  A
O658       Ni677   1.894       .  S
O658        C664   1.264       .  A
O659       Ni677   1.897       .  S
O659        C661   1.266       .  A
Ni660       O663   1.887       .  S
Ni660       O665   1.886       .  S
C661       C2207   1.460       .  S
C661        O671   1.263       .  A
O662       Ni678   1.891       .  S
O662        C668   1.272       .  A
O663        C668   1.274       .  A
C664       C2249   1.463       .  S
O665        C667   1.261       .  A
O666       Ni677   1.894       .  S
C667       C2599   1.449       .  S
C667        O673   1.261       .  A
C668       C2218   1.440       .  S
H669        O670   0.966       .  S
O670       Ni678   1.903       .  S
O670       Ni672   1.887       .  S
O670       Ni677   1.889       .  S
O671       Ni672   1.895       .  S
Ni672       O676   1.929       .  S
Ni672       O674   1.884       .  S
O673       Ni678   1.903       .  S
C675       C3439   1.477       .  S
C675        O676   1.264       .  A
N680        C684   1.347       .  A
N680        C681   1.343       .  A
N680       C2176   1.429       .  S
C681        C682   1.375       .  A
C681       C2403   1.456   1_455  S
C682        C683   1.376       .  A
C682       C2921   1.465       .  S
C683        C684   1.377       .  A
C683       C3425   1.463       .  S
C684       C2204   1.463       .  S
N685        C689   1.346       .  A
N685        C686   1.337       .  A
N685       C3397   1.453       .  S
C686        C687   1.390       .  A
C686       C2165   1.457       .  S
C687        C688   1.402       .  A
C687       C4234   1.473       .  S
C688        C689   1.384       .  A
C688       C2515   1.498       .  S
C689       C2221   1.438   1_554  S
O690       Ni696   1.926       .  S
O690        C711   1.276       .  A
O691       Ni714   1.906       .  S
O691        C700   1.266       .  A
O692       Ni696   1.875       .  S
O692       Ni714   1.878       .  S
O692       Ni708   1.915       .  S
O692        H715   0.966       .  S
C693       C4405   1.482       .  S
C693        O710   1.287       .  A
C693        O702   1.281       .  A
O694       Ni713   1.900       .  S
O694        C700   1.263       .  A
O695       Ni713   1.902       .  S
O695        C697   1.263       .  A
Ni696       O699   1.928       .  S
Ni696       O701   1.917       .  S
C697       C3688   1.486       .  S
C697        O707   1.272       .  A
O698       Ni714   1.909       .  S
O698        C704   1.276       .  A
O699        C704   1.281       .  A
C700       C2162   1.469       .  S
O701        C703   1.268       .  A
O702       Ni713   1.909       .  S
C703       C2151   1.495       .  S
C703        O709   1.282       .  A
C704       C2137   1.482       .  S
H705        O706   0.966       .  S
O706       Ni714   1.918       .  S
O706       Ni708   1.876       .  S
O706       Ni713   1.884       .  S
O707       Ni708   1.947       .  S
Ni708       O712   1.882       .  S
Ni708       O710   1.945       .  S
O709       Ni714   1.960       .  S
C711       C2120   1.448       .  S
C711        O712   1.267       .  A
N716        C720   1.353   1_455  A
N716        C717   1.361       .  A
N716       C2092   1.476       .  S
C717        C718   1.418       .  A
C717       C2134   1.468       .  S
C718        C719   1.433       .  A
C718       C3411   1.546       .  S
C719        C720   1.417   1_455  A
C719       C2935   1.516   1_455  S
C720       C2106   1.487       .  S
O721       Ni727   1.936       .  S
O721        C742   1.276       .  A
O722       Ni745   1.895       .  S
O722        C731   1.259       .  A
O723       Ni727   1.910       .  S
O723       Ni745   1.895       .  S
O723       Ni739   1.912       .  S
O723        H746   0.965       .  S
C724       C2053   1.472       .  S
C724        O741   1.275       .  A
C724        O733   1.279       .  A
O725       Ni744   1.907       .  S
O725        C731   1.261       .  A
O726       Ni744   1.903       .  S
O726        C728   1.263       .  A
Ni727       O730   1.923       .  S
Ni727       O732   1.925       .  S
C728       C4335   1.493       .  S
C728        O738   1.262       .  A
O729       Ni745   1.874       .  S
O729        C735   1.266       .  A
O730        C735   1.276       .  A
C731       C3187   1.448       .  S
O732        C734   1.275       .  A
O733       Ni744   1.920       .  S
C734       C2109   1.496       .  S
C734        O740   1.271       .  A
C735       C2067   1.450       .  S
H736        O737   0.967       .  S
O737       Ni745   1.901       .  S
O737       Ni739   1.884       .  S
O737       Ni744   1.912       .  S
O738       Ni739   1.920       .  S
Ni739       O743   1.852       .  S
Ni739       O741   1.910       .  S
O740       Ni745   1.927       .  S
C742       C2078   1.468       .  S
C742        O743   1.256       .  A
N747        C751   1.346       .  A
N747        C748   1.343   1_556  A
N747       C2907   1.446       .  S
C748        C749   1.385       .  A
C748       C2064   1.454       .  S
C749        C750   1.379   1_554  A
C749       C4321   1.465       .  S
C750        C751   1.379       .  A
C750       C2473   1.481       .  S
C751       C2375   1.439       .  S
O752       Ni758   1.902       .  S
O752        C773   1.260       .  A
O753       Ni776   1.941       .  S
O753        C762   1.278       .  A
O754       Ni758   1.895       .  S
O754       Ni776   1.913       .  S
O754       Ni770   1.940       .  S
O754        H777   0.967       .  S
C755       C2011   1.490       .  S
C755        O772   1.292       .  A
C755        O764   1.277       .  A
O756       Ni775   1.923       .  S
O756        C762   1.270       .  A
O757       Ni775   1.908       .  S
O757        C759   1.267       .  A
Ni758       O761   1.914       .  S
Ni758       O763   1.889       .  S
C759       C2039   1.483       .  S
C759        O769   1.275       .  A
O760       Ni776   1.948       .  S
O760        C766   1.284       .  A
O761        C766   1.277       .  A
C762       C3618   1.490       .  S
O763        C765   1.263       .  A
O764       Ni775   1.913       .  S
C765       C4517   1.493       .  S
C765        O771   1.278       .  A
C766       C4066   1.484       .  S
H767        O768   0.966       .  S
O768       Ni776   1.915       .  S
O768       Ni770   1.916       .  S
O768       Ni775   1.901       .  S
O769       Ni770   1.943       .  S
Ni770       O774   1.978       .  S
Ni770       O772   1.962       .  S
O771       Ni776   1.948       .  S
C773       C2022   1.516       .  S
C773        O774   1.282       .  A
N778        C782   1.353   1_455  A
N778        C779   1.353       .  A
N778       C3761   1.462       .  S
C779        C780   1.427       .  A
C779       C2036   1.507       .  S
C780        C781   1.456   1_455  A
C780       C3324   1.545       .  S
C781        C782   1.414       .  A
C781       C2977   1.557       .  S
C782       C1994   1.472       .  S
N783        C787   1.351       .  A
N783        C784   1.351   1_565  A
N783       C4209   1.453       .  S
C784        C785   1.422       .  A
C784       C2025   1.507       .  S
C785        C786   1.495   1_545  A
C785       C3775   1.567       .  S
C786        C787   1.429       .  A
C786       C1980   1.578       .  S
C787       C2148   1.509       .  S
N788        C792   1.361   1_554  A
N788        C789   1.351       .  A
N788       C3313   1.454       .  S
C789        C790   1.402       .  A
C789       C2008   1.499       .  S
C790        C791   1.419   1_554  A
C790       C4220   1.491       .  S
C791        C792   1.405       .  A
C791       C2529   1.525       .  S
C792       C2277   1.475       .  S
N793        C797   1.348       .  A
N793        C794   1.349   1_565  A
N793       C4293   1.445   1_565  S
C794        C795   1.393       .  A
C794       C1966   1.466       .  S
C795        C796   1.390   1_545  A
C795       C3789   1.483       .  S
C796        C797   1.394       .  A
C796       C1952   1.484       .  S
C797       C2081   1.471       .  S
O798       Ni804   1.945       .  S
O798        C819   1.277       .  A
O799       Ni822   1.906       .  S
O799        C808   1.267       .  A
O800       Ni804   1.895       .  S
O800       Ni822   1.902       .  S
O800       Ni816   1.892       .  S
O800        H823   0.967       .  S
C801       C1969   1.471       .  S
C801        O818   1.279       .  A
C801        O810   1.274       .  A
O802       Ni821   1.917       .  S
O802        C808   1.265       .  A
O803       Ni821   1.901       .  S
O803        C805   1.268       .  A
Ni804       O807   1.947       .  S
Ni804       O809   1.924       .  S
C805       C1941   1.495       .  S
C805        O815   1.271       .  A
O806       Ni822   1.869       .  S
O806        C812   1.266       .  A
O807        C812   1.282       .  A
C808       C1997   1.485       .  S
O809        C811   1.270       .  A
O810       Ni821   1.889       .  S
C811       C3957   1.482       .  S
C811        O817   1.269       .  A
C812       C3243   1.447       .  S
H813        O814   0.965       .  S
O814       Ni822   1.887       .  S
O814       Ni816   1.902       .  S
O814       Ni821   1.888       .  S
O815       Ni816   1.932       .  S
Ni816       O820   1.914       .  S
Ni816       O818   1.923       .  S
O817       Ni822   1.935       .  S
C819       C4587   1.487       .  S
C819        O820   1.272       .  A
N824        C828   1.367       .  A
N824        C825   1.359       .  A
N824       C2949   1.467       .  S
C825        C826   1.409       .  A
C825       C2347   1.501   1_554  S
C826        C827   1.418       .  A
C826       C2487   1.497   1_554  S
C827        C828   1.407       .  A
C827       C4307   1.534       .  S
C828       C1938   1.477       .  S
N829        C833   1.351       .  A
N829        C830   1.349       .  A
N829       C1882   1.422       .  S
C830        C831   1.373       .  A
C830       C2123   1.462       .  S
C831        C832   1.390       .  A
C831       C1910   1.505       .  S
C832        C833   1.399       .  A
C832       C1927   1.433       .  S
C833       C1896   1.520       .  S
N834        C838   1.358       .  A
N834        C835   1.357       .  A
N834       C1826   1.476       .  S
C835        C836   1.414       .  A
C835       C1840   1.484       .  S
C836        C837   1.404       .  A
C836       C1868   1.491       .  S
C837        C838   1.398       .  A
C837       C1854   1.534       .  S
C838       C2190   1.438       .  S
N839        C843   1.353       .  A
N839        C840   1.331       .  A
N839       C1770   1.442       .  S
C840        C841   1.374       .  A
C840       C1784   1.458       .  S
C841        C842   1.395       .  A
C841       C1812   1.458       .  S
C842        C843   1.388       .  A
C842       C1801   1.496       .  S
C843       C2361   1.453       .  S
N844        C848   1.374       .  A
N844        C845   1.373       .  A
N844       C1714   1.455       .  S
C845        C846   1.397       .  A
C845       C2050   1.475       .  S
C846        C847   1.434       .  A
C846       C1742   1.588       .  S
C847        C848   1.454       .  A
C847       C1756   1.458       .  S
C848       C1728   1.604       .  S
C849        C851   1.543       .  S
C849        C853   1.534       .  S
C849        C852   1.558       .  S
C849       C1731   1.625       .  S
C850        C854   1.548       .  S
C850        C856   1.534       .  S
C850        C855   1.567       .  S
C850       C1703   1.617       .  S
C851        C859   1.362       .  A
C851        C854   1.431       .  A
C852        C863   1.386       .  A
C852        C855   1.427       .  A
C853        C867   1.370       .  A
C853        C856   1.409       .  A
C854        C857   1.380       .  A
C855        C861   1.396       .  A
C856        C864   1.368       .  A
C857        N858   1.353       .  A
C857        H870   1.082       .  S
N858        C859   1.349       .  A
N858       C1787   1.429       .  S
C859        H860   1.080       .  S
C861        N862   1.365       .  A
C861        H871   1.080       .  S
N862        C863   1.363       .  A
N862       C1672   1.473       .  S
C863        H869   1.080       .  S
C864        N865   1.354       .  A
C864        H866   1.084       .  S
N865        C867   1.352       .  A
N865       C1686   1.419       .  S
C867        H868   1.082       .  S
C872        C874   1.536   1_455  S
C872        C876   1.572       .  S
C872        C875   1.575       .  S
C872       C1983   1.636       .  S
C873        C877   1.543       .  S
C873        C879   1.556   1_655  S
C873        C878   1.583       .  S
C873       C1745   1.629       .  S
C874        C882   1.369       .  A
C874        C877   1.403       .  A
C875        C886   1.395       .  A
C875        C878   1.424   1_455  A
C876        C890   1.391       .  A
C876        C879   1.424       .  A
C877        C880   1.382       .  A
C878        C884   1.400       .  A
C879        C887   1.384       .  A
C880        N881   1.358       .  A
C880        H893   1.083       .  S
N881        C882   1.352       .  A
N881       C1955   1.427       .  S
C882        H883   1.081       .  S
C884        N885   1.373   1_655  A
C884        H894   1.072       .  S
N885        C886   1.372       .  A
N885       C2095   1.485       .  S
C886        H892   1.082       .  S
C887        N888   1.358       .  A
C887        H889   1.082       .  S
N888        C890   1.356       .  A
N888       C1913   1.447       .  S
C890        H891   1.075       .  S
C895        C897   1.548       .  S
C895        C899   1.548       .  S
C895        C898   1.522       .  S
C895       C2305   1.576   1_455  S
C896        C900   1.556       .  S
C896        C902   1.557       .  S
C896        C901   1.550       .  S
C896       C1857   1.594       .  S
C897        C905   1.373       .  A
C897        C900   1.409       .  A
C898        C909   1.370       .  A
C898        C901   1.391       .  A
C899        C913   1.386   1_455  A
C899        C902   1.418       .  A
C900        C903   1.393       .  A
C901        C907   1.374       .  A
C902        C910   1.380       .  A
C903        N904   1.370       .  A
C903        H916   1.082       .  S
N904        C905   1.358       .  A
N904       C2235   1.460       .  S
C905        H906   1.078       .  S
C907        N908   1.355       .  A
C907        H917   1.081       .  S
N908        C909   1.352       .  A
N908       C2179   1.434       .  S
C909        H915   1.081   1_455  S
C910        N911   1.358   1_455  A
C910        H912   1.078       .  S
N911        C913   1.363       .  A
N911       C1798   1.456       .  S
C913        H914   1.081       .  S
C918        C920   1.523       .  S
C918        C922   1.531       .  S
C918        C921   1.545       .  S
C918       C1899   1.554       .  S
C919        C923   1.563       .  S
C919        C925   1.573       .  S
C919        C924   1.548       .  S
C919       C1644   1.577       .  S
C920        C928   1.380       .  A
C920        C923   1.396       .  A
C921        C932   1.376       .  A
C921        C924   1.397       .  A
C922        C936   1.369       .  A
C922        C925   1.421       .  A
C923        C926   1.386       .  A
C924        C930   1.388       .  A
C925        C933   1.397       .  A
C926        N927   1.360       .  A
C926        H939   1.077       .  S
N927        C928   1.355       .  A
N927       C1658   1.447       .  S
C928        H929   1.081       .  S
C930        N931   1.364       .  A
C930        H940   1.082       .  S
N931        C932   1.353       .  A
N931       C1633   1.446       .  S
C932        H938   1.080       .  S
C933        N934   1.354       .  A
C933        H935   1.074       .  S
N934        C936   1.341       .  A
N934       C1843   1.433       .  S
C936        H937   1.084       .  S
N941        C945   1.357       .  A
N941        C942   1.351       .  A
N941       C4027   1.452       .  S
C942        C943   1.406       .  A
C942       C1602   1.493       .  S
C943        C944   1.407       .  A
C943       C2445   1.485       .  S
C944        C945   1.395       .  A
C944       C4489   1.511       .  S
C945       C1616   1.469       .  S
N946        C950   1.335       .  A
N946        C947   1.357       .  A
N946       C3579   1.442       .  S
C947        C948   1.408       .  A
C947       C1577   1.480       .  S
C948        C949   1.406       .  A
C948       C1661   1.523       .  S
C949        C950   1.386       .  A
C949       C4038   1.458       .  S
C950       C1588   1.481       .  S
N951        C955   1.344       .  A
N951        C952   1.346       .  A
N951       C4475   1.442       .  S
C952        C953   1.387       .  A
C952       C1549   1.461       .  S
C953        C954   1.385       .  A
C953       C2893   1.480       .  S
C954        C955   1.387       .  A
C954       C3593   1.462       .  S
C955       C1560   1.466       .  S
O956       Ni962   1.902       .  S
O956        C977   1.261       .  A
O957       Ni980   1.924       .  S
O957        C966   1.275       .  A
O958       Ni962   1.870       .  S
O958       Ni980   1.884       .  S
O958       Ni974   1.914       .  S
O958        H981   0.966       .  S
C959       C4531   1.479       .  S
C959        O976   1.283       .  A
C959        O968   1.281       .  A
O960       Ni979   1.899       .  S
O960        C966   1.260       .  A
O961       Ni979   1.894       .  S
O961        C963   1.257       .  A
Ni962       O965   1.910       .  S
Ni962       O967   1.868       .  S
C963       C3635   1.479       .  S
C963        O973   1.265       .  A
O964       Ni980   1.931       .  S
O964        C970   1.284       .  A
O965        C970   1.277       .  A
C966       C1563   1.475       .  S
O967        C969   1.260       .  A
O968       Ni979   1.906       .  S
C969       C1619   1.468       .  S
C969        O975   1.274       .  A
C970       C1591   1.463       .  S
H971        O972   0.966       .  S
O972       Ni980   1.928       .  S
O972       Ni974   1.870       .  S
O972       Ni979   1.868       .  S
O973       Ni974   1.918       .  S
Ni974       O978   1.888       .  S
Ni974       O976   1.937       .  S
O975       Ni980   1.944       .  S
C977       C4080   1.435       .  S
C977        O978   1.263       .  A
O982       Ni988   1.921       .  S
O982       C1003   1.270       .  A
O983      Ni1006   1.837       .  S
O983        C992   1.255       .  A
O984       Ni988   1.909       .  S
O984      Ni1006   1.875       .  S
O984      Ni1000   1.885       .  S
O984       H1007   0.967       .  S
C985       C1546   1.471       .  S
C985       O1002   1.268       .  A
C985        O994   1.273       .  A
O986      Ni1005   1.912       .  S
O986        C992   1.265       .  A
O987      Ni1005   1.918       .  S
O987        C989   1.268       .  A
Ni988       O991   1.929       .  S
Ni988       O993   1.910       .  S
C989       C1518   1.482       .  S
C989        O999   1.264       .  A
O990      Ni1006   1.884       .  S
O990        C996   1.265       .  A
O991        C996   1.274       .  A
C992       C1532   1.433       .  S
O993        C995   1.267       .  A
O994      Ni1005   1.914       .  S
C995       C3257   1.491       .  S
C995       O1001   1.275       .  A
C996       C3971   1.449       .  S
H997        O998   0.966       .  S
O998      Ni1006   1.904       .  S
O998      Ni1000   1.881       .  S
O998      Ni1005   1.927       .  S
O999      Ni1000   1.908       .  S
Ni1000     O1004   1.838       .  S
Ni1000     O1002   1.892       .  S
O1001     Ni1006   1.949       .  S
C1003      C4601   1.423       .  S
C1003      O1004   1.251       .  A
O1008     Ni1014   1.899       .  S
O1008      C1029   1.264       .  A
O1009     Ni1032   1.882       .  S
O1009      C1018   1.261       .  A
O1010     Ni1014   1.911       .  S
O1010     Ni1032   1.897       .  S
O1010     Ni1026   1.894       .  S
O1010      H1033   0.966       .  S
C1011      C1490   1.471       .  S
C1011      O1028   1.258       .  A
C1011      O1020   1.267       .  A
O1012     Ni1031   1.900       .  S
O1012      C1018   1.268       .  A
O1013     Ni1031   1.876       .  S
O1013      C1015   1.263       .  A
Ni1014     O1017   1.906       .  S
Ni1014     O1019   1.885       .  S
C1015      C1574   1.459       .  S
C1015      O1025   1.277       .  A
O1016     Ni1032   1.904       .  S
O1016      C1022   1.266       .  A
O1017      C1022   1.269       .  A
C1018      C1504   1.437       .  S
O1019      C1021   1.263       .  A
O1020     Ni1031   1.925       .  S
C1021      C4419   1.454       .  S
C1021      O1027   1.263       .  A
C1022      C3705   1.448       .  S
H1023      O1024   0.966       .  S
O1024     Ni1032   1.933       .  S
O1024     Ni1026   1.899       .  S
O1024     Ni1031   1.927       .  S
O1025     Ni1026   1.946       .  S
Ni1026     O1030   1.880       .  S
Ni1026     O1028   1.879       .  S
O1027     Ni1032   1.911       .  S
C1029      C1885   1.432       .  S
C1029      O1030   1.258       .  A
O1034     Ni1040   1.932       .  S
O1034      C1055   1.277       .  A
O1035     Ni1058   1.877       .  S
O1035      C1044   1.267       .  A
O1036     Ni1040   1.894       .  S
O1036     Ni1058   1.897       .  S
O1036     Ni1052   1.888       .  S
O1036      H1059   0.966       .  S
C1037      C2806   1.458       .  S
C1037      O1054   1.279       .  A
C1037      O1046   1.277       .  A
O1038     Ni1057   1.912       .  S
O1038      C1044   1.274       .  A
O1039     Ni1057   1.936       .  S
O1039      C1041   1.270       .  A
Ni1040     O1043   1.920       .  S
Ni1040     O1045   1.905       .  S
C1041      C3523   1.505       .  S
C1041      O1051   1.269       .  A
O1042     Ni1058   1.916       .  S
O1042      C1048   1.271       .  A
O1043      C1048   1.267       .  A
C1044      C4150   1.435       .  S
O1045      C1047   1.269       .  A
O1046     Ni1057   1.897       .  S
C1047      C1605   1.501       .  S
C1047      O1053   1.287       .  A
C1048      C1462   1.473       .  S
H1049      O1050   0.966       .  S
O1050     Ni1058   1.885       .  S
O1050     Ni1052   1.871       .  S
O1050     Ni1057   1.887       .  S
O1051     Ni1052   1.942       .  S
Ni1052     O1056   1.847       .  S
Ni1052     O1054   1.933       .  S
O1053     Ni1058   1.989       .  S
C1055      C1476   1.456       .  S
C1055      O1056   1.257       .  A
N1060      C1064   1.343       .  A
N1060      C1061   1.363       .  A
N1060      C4248   1.467       .  S
C1061      C1062   1.413       .  A
C1061      C1507   1.447       .  S
C1062      C1063   1.428       .  A
C1062      C3607   1.568       .  S
C1063      C1064   1.417       .  A
C1063      C2876   1.476       .  S
C1064      C1448   1.508       .  S
N1065      C1069   1.361       .  A
N1065      C1066   1.360       .  A
N1065      C1675   1.469       .  S
C1066      C1067   1.422       .  A
C1066      C1434   1.508       .  S
C1067      C1068   1.428       .  A
C1067      C2568   1.500       .  S
C1068      C1069   1.396       .  A
C1068      C4279   1.547       .  S
C1069      C1420   1.463       .  S
N1070      C1074   1.345       .  A
N1070      C1071   1.334       .  A
N1070      C2865   1.445       .  S
C1071      C1072   1.387       .  A
C1071      C1406   1.468       .  S
C1072      C1073   1.396       .  A
C1072      C1689   1.457       .  S
C1073      C1074   1.393       .  A
C1073      C3817   1.510       .  S
C1074      C1535   1.438       .  S
O1075     Ni1081   1.893       .  S
O1075      C1096   1.261       .  A
O1076     Ni1099   1.884       .  S
O1076      C1085   1.268       .  A
O1077     Ni1081   1.895       .  S
O1077     Ni1099   1.882       .  S
O1077     Ni1093   1.937       .  S
O1077      H1100   0.967       .  S
C1078      C1409   1.465       .  S
C1078      O1095   1.285       .  A
C1078      O1087   1.284       .  A
O1079     Ni1098   1.908       .  S
O1079      C1085   1.267       .  A
O1080     Ni1098   1.904       .  S
O1080      C1082   1.265       .  A
Ni1081     O1084   1.926       .  S
Ni1081     O1086   1.895       .  S
C1082      C1451   1.506       .  S
C1082      O1092   1.280       .  A
O1083     Ni1099   1.894       .  S
O1083      C1089   1.271       .  A
O1084      C1089   1.278       .  A
C1085      C3173   1.445       .  S
O1086      C1088   1.263       .  A
O1087     Ni1098   1.913       .  S
C1088      C1717   1.508       .  S
C1088      O1094   1.279       .  A
C1089      C4349   1.456       .  S
H1090      O1091   0.956       .  S
O1091     Ni1099   1.900       .  S
O1091     Ni1093   1.869       .  S
O1091     Ni1098   1.865       .  S
O1092     Ni1093   1.964       .  S
Ni1093     O1097   1.914       .  S
Ni1093     O1095   1.917       .  S
O1094     Ni1099   1.967       .  S
C1096      C1423   1.455       .  S
C1096      O1097   1.265       .  A
N1101      C1105   1.346       .  A
N1101      C1102   1.353       .  A
N1101      C3803   1.454       .  S
C1102      C1103   1.386       .  A
C1102      C1395   1.440       .  S
C1103      C1104   1.394       .  A
C1103      C2431   1.512       .  S
C1104      C1105   1.398       .  A
C1104      C4503   1.463       .  S
C1105      C1521   1.483       .  S
N1106      C1110   1.367       .  A
N1106      C1107   1.373       .  A
N1106      C2991   1.494       .  S
C1107      C1108   1.425       .  A
C1107      C1378   1.484       .  S
C1108      C1109   1.452       .  A
C1108      C1700   1.565       .  S
C1109      C1110   1.429       .  A
C1109      C3831   1.552       .  S
C1110      C1364   1.496       .  S
N1111      C1115   1.340       .  A
N1111      C1112   1.342       .  A
N1111      C2417   1.435       .  S
C1112      C1113   1.374       .  A
C1112      C1479   1.437       .  S
C1113      C1114   1.374       .  A
C1113      C3369   1.469       .  S
C1114      C1115   1.384       .  A
C1114      C3005   1.463       .  S
C1115      C1350   1.458       .  S
O1116     Ni1122   1.887       .  S
O1116      C1137   1.263       .  A
O1117     Ni1140   1.870       .  S
O1117      C1126   1.262       .  A
O1118     Ni1122   1.879       .  S
O1118     Ni1140   1.869       .  S
O1118     Ni1134   1.911       .  S
O1118      H1141   0.967       .  S
C1119      C1392   1.437       .  S
C1119      O1136   1.277       .  A
C1119      O1128   1.279       .  A
O1120     Ni1139   1.910       .  S
O1120      C1126   1.266       .  A
O1121     Ni1139   1.895       .  S
O1121      C1123   1.263       .  A
Ni1122     O1125   1.908       .  S
Ni1122     O1127   1.905       .  S
C1123      C1367   1.496       .  S
C1123      O1133   1.282       .  A
O1124     Ni1140   1.891       .  S
O1124      C1130   1.275       .  A
O1125      C1130   1.278       .  A
C1126      C3901   1.437       .  S
O1127      C1129   1.264       .  A
O1128     Ni1139   1.899       .  S
C1129      C2725   1.507       .  S
C1129      O1135   1.271       .  A
C1130      C3033   1.464       .  S
H1131      O1132   0.967       .  S
O1132     Ni1140   1.894       .  S
O1132     Ni1134   1.882       .  S
O1132     Ni1139   1.872       .  S
O1133     Ni1134   1.965       .  S
Ni1134     O1138   1.916       .  S
Ni1134     O1136   1.897       .  S
O1135     Ni1140   1.951       .  S
C1137      C1353   1.461       .  S
C1137      O1138   1.271       .  A
N1142      C1146   1.360       .  A
N1142      C1143   1.357       .  A
N1142      C3355   1.472       .  S
C1143      C1144   1.430       .  A
C1143      C1336   1.502       .  S
C1144      C1145   1.434       .  A
C1144      C1647   1.520       .  S
C1145      C1146   1.400       .  A
C1145      C4055   1.548       .  S
C1146      C1465   1.457       .  S
N1147      C1151   1.348       .  A
N1147      C1148   1.366       .  A
N1147      C2543   1.461       .  S
C1148      C1149   1.418       .  A
C1148      C1325   1.477       .  S
C1149      C1150   1.483       .  A
C1149      C3016   1.602       .  S
C1150      C1151   1.419       .  A
C1150      C3380   1.524       .  S
C1151      C1308   1.529       .  S
N1152      C1156   1.345       .  A
N1152      C1153   1.348       .  A
N1152      C1630   1.451       .  S
C1153      C1154   1.391       .  A
C1153      C1493   1.461       .  S
C1154      C1155   1.387       .  A
C1154      C4265   1.482       .  S
C1155      C1156   1.386       .  A
C1155      C2557   1.485       .  S
C1156      C1294   1.445       .  S
O1157     Ni1163   1.896       .  S
O1157      C1178   1.264       .  A
O1158     Ni1181   1.913       .  S
O1158      C1167   1.270       .  A
O1159     Ni1163   1.874       .  S
O1159     Ni1181   1.873       .  S
O1159     Ni1175   1.934       .  S
O1159      H1182   0.966       .  S
C1160      C2585   1.511       .  S
C1160      O1177   1.281       .  A
C1160      O1169   1.287       .  A
O1161     Ni1180   1.906       .  S
O1161      C1167   1.265       .  A
O1162     Ni1180   1.924       .  S
O1162      C1164   1.267       .  A
Ni1163     O1166   1.908       .  S
Ni1163     O1168   1.905       .  S
C1164      C1829   1.515       .  S
C1164      O1174   1.278       .  A
O1165     Ni1181   1.972       .  S
O1165      C1171   1.295       .  A
O1166      C1171   1.279       .  A
C1167      C3453   1.460       .  S
O1168      C1170   1.266       .  A
O1169     Ni1180   1.962       .  S
C1170      C1311   1.532       .  S
C1170      O1176   1.287       .  A
C1171      C1339   1.511       .  S
H1172      O1173   0.966       .  S
O1173     Ni1181   1.964       .  S
O1173     Ni1175   1.881       .  S
O1173     Ni1180   1.907       .  S
O1174     Ni1175   1.968       .  S
Ni1175     O1179   1.876       .  S
Ni1175     O1177   1.934       .  S
O1176     Ni1181   1.996       .  S
C1178      C1297   1.448       .  S
C1178      O1179   1.262       .  A
O1183     Ni1189   1.922       .  S
O1183      C1204   1.273       .  A
O1184     Ni1207   1.921       .  S
O1184      C1193   1.274       .  A
O1185     Ni1189   1.904       .  S
O1185     Ni1207   1.913       .  S
O1185     Ni1201   1.912       .  S
O1185      H1208   0.966       .  S
C1186      C2655   1.452       .  S
C1186      O1203   1.275       .  A
C1186      O1195   1.275       .  A
O1187     Ni1206   1.915       .  S
O1187      C1193   1.269       .  A
O1188     Ni1206   1.915       .  S
O1188      C1190   1.268       .  A
Ni1189     O1192   1.920       .  S
Ni1189     O1194   1.908       .  S
C1190      C3103   1.494       .  S
C1190      O1200   1.278       .  A
O1191     Ni1207   1.932       .  S
O1191      C1197   1.274       .  A
O1192      C1197   1.269       .  A
C1193      C1773   1.470       .  S
O1194      C1196   1.271       .  A
O1195     Ni1206   1.901       .  S
C1196      C1437   1.514       .  S
C1196      O1202   1.287       .  A
C1197      C1381   1.487       .  S
H1198      O1199   0.966       .  S
O1199     Ni1207   1.904       .  S
O1199     Ni1201   1.895       .  S
O1199     Ni1206   1.892       .  S
O1200     Ni1201   1.953       .  S
Ni1201     O1205   1.904       .  S
Ni1201     O1203   1.921       .  S
O1202     Ni1207   1.985       .  S
C1204      C1322   1.477       .  S
C1204      O1205   1.271       .  A
O1209     Ni1217   1.911       .  S
O1209      C1219   1.281       .  A
O1210     Ni1217   1.916       .  S
O1210      C1220   1.279   1_455  A
O1211     Ni1217   1.896       .  S
O1211      C1221   1.279       .  A
O1212     Ni1217   1.900       .  S
O1212      C1222   1.276   1_455  A
O1213     Ni1218   1.898   1_655  S
O1213      C1222   1.278       .  A
O1214     Ni1218   1.907       .  S
O1214      C1221   1.279       .  A
O1215     Ni1218   1.873   1_655  S
O1215      C1220   1.273       .  A
O1216     Ni1218   1.880       .  S
O1216      C1219   1.273       .  A
Ni1217    Ni1218   2.399       .  S
C1219      C4192   1.446       .  S
C1220      C4013   1.441       .  S
C1221      C4122   1.464       .  S
C1222      C3943   1.444       .  S
O1223     Ni1231   1.884   1_655  S
O1223      C1233   1.279       .  A
O1224     Ni1231   1.885       .  S
O1224      C1234   1.272       .  A
O1225     Ni1231   1.902   1_655  S
O1225      C1235   1.280       .  A
O1226     Ni1231   1.905       .  S
O1226      C1236   1.278       .  A
O1227     Ni1232   1.923       .  S
O1227      C1236   1.283       .  A
O1228     Ni1232   1.918       .  S
O1228      C1235   1.281   1_455  A
O1229     Ni1232   1.876       .  S
O1229      C1234   1.277       .  A
O1230     Ni1232   1.901       .  S
O1230      C1233   1.274   1_455  A
Ni1231    Ni1232   2.396       .  S
C1233      C1815   1.441       .  S
C1234      C1924   1.430       .  S
C1235      C1759   1.483       .  S
C1236      C1871   1.469       .  S
O1237     Ni1245   1.877       .  S
O1237      C1247   1.273       .  A
O1238     Ni1245   1.882   1_556  S
O1238      C1248   1.274       .  A
O1239     Ni1245   1.907   1_556  S
O1239      C1249   1.279       .  A
O1240     Ni1245   1.907       .  S
O1240      C1250   1.279       .  A
O1241     Ni1246   1.910       .  S
O1241      C1250   1.279       .  A
O1242     Ni1246   1.909   1_556  S
O1242      C1249   1.282       .  A
O1243     Ni1246   1.887   1_556  S
O1243      C1248   1.275       .  A
O1244     Ni1246   1.882       .  S
O1244      C1247   1.275       .  A
Ni1245    Ni1246   2.400       .  S
C1247      C3226   1.424       .  S
C1248      C3089   1.431       .  S
C1249      C3159   1.476       .  S
C1250      C3299   1.457       .  S
O1251     Ni1259   1.905   1_565  S
O1251      C1261   1.279       .  A
O1252     Ni1259   1.900       .  S
O1252      C1262   1.280       .  A
O1253     Ni1259   1.879       .  S
O1253      C1263   1.274       .  A
O1254     Ni1259   1.881   1_565  S
O1254      C1264   1.273       .  A
O1255     Ni1260   1.875       .  S
O1255      C1264   1.276       .  A
O1256     Ni1260   1.875   1_545  S
O1256      C1263   1.272       .  A
O1257     Ni1260   1.912   1_545  S
O1257      C1262   1.280       .  A
O1258     Ni1260   1.913       .  S
O1258      C1261   1.279       .  A
Ni1259    Ni1260   2.398   1_545  S
C1261      C2641   1.456       .  S
C1262      C2778   1.480       .  S
C1263      C2848   1.419       .  S
C1264      C2708   1.442       .  S
O1265     Ni1273   1.891   1_556  S
O1265      C1275   1.276       .  A
O1266     Ni1273   1.900       .  S
O1266      C1276   1.276       .  A
O1267     Ni1273   1.924   1_556  S
O1267      C1277   1.283       .  A
O1268     Ni1273   1.920       .  S
O1268      C1278   1.284       .  A
O1269     Ni1274   1.917       .  S
O1269      C1278   1.280       .  A
O1270     Ni1274   1.919   1_556  S
O1270      C1277   1.283       .  A
O1271     Ni1274   1.903       .  S
O1271      C1276   1.278       .  A
O1272     Ni1274   1.891   1_556  S
O1272      C1275   1.276       .  A
Ni1273    Ni1274   2.391       .  S
C1275      C3495   1.447       .  S
C1276      C3674   1.450       .  S
C1277      C3565   1.495       .  S
C1278      C3747   1.483       .  S
O1279     Ni1287   1.870   1_545  S
O1279      C1289   1.272       .  A
O1280     Ni1287   1.868       .  S
O1280      C1290   1.271       .  A
O1281     Ni1287   1.920       .  S
O1281      C1291   1.285       .  A
O1282     Ni1287   1.918   1_545  S
O1282      C1292   1.282       .  A
O1283     Ni1288   1.911   1_545  S
O1283      C1292   1.281       .  A
O1284     Ni1288   1.911       .  S
O1284      C1291   1.279       .  A
O1285     Ni1288   1.898       .  S
O1285      C1290   1.278       .  A
O1286     Ni1288   1.902   1_545  S
O1286      C1289   1.277       .  A
Ni1287    Ni1288   2.391       .  S
C1289      C4640   1.435       .  S
C1290      C4461   1.437       .  S
C1291      C4391   1.490       .  S
C1292      C4573   1.491       .  S
C1293      C1294   1.389       .  A
C1293      C1298   1.374       .  A
C1293      H1300   1.084       .  S
C1294      C1295   1.402       .  A
C1295      C1296   1.395       .  A
C1295      N1302   1.438       .  S
C1296      C1297   1.403       .  A
C1296      H1301   1.084       .  S
C1297      C1298   1.415       .  A
C1298      N1299   1.430       .  S
N1299      H1303   1.042       .  S
N1299      H1304   1.044       .  S
N1302      H1305   1.043       .  S
N1302      H1306   1.046       .  S
C1307      C1308   1.416       .  A
C1307      C1312   1.433       .  A
C1307      H1314   1.083       .  S
C1308      C1309   1.417       .  A
C1309      C1310   1.410       .  A
C1309      N1316   1.438       .  S
C1310      C1311   1.415       .  A
C1310      H1315   1.083       .  S
C1311      C1312   1.420       .  A
C1312      N1313   1.435       .  S
N1313      H1317   1.046       .  S
N1313      H1318   1.045       .  S
N1316      H1319   1.042       .  S
N1316      H1320   1.045       .  S
C1321      C1322   1.404       .  A
C1321      C1326   1.402       .  A
C1321      H1328   1.084       .  S
C1322      C1323   1.411       .  A
C1323      C1324   1.395       .  A
C1323      N1330   1.433       .  S
C1324      C1325   1.399       .  A
C1324      H1329   1.083       .  S
C1325      C1326   1.415       .  A
C1326      N1327   1.437       .  S
N1327      H1331   1.045       .  S
N1327      H1332   1.043       .  S
N1330      H1333   1.046       .  S
N1330      H1334   1.046       .  S
C1335      C1336   1.408       .  A
C1335      C1340   1.409       .  A
C1335      H1342   1.083       .  S
C1336      C1337   1.410       .  A
C1337      C1338   1.404       .  A
C1337      N1344   1.433       .  S
C1338      C1339   1.417       .  A
C1338      H1343   1.083       .  S
C1339      C1340   1.419       .  A
C1340      N1341   1.431       .  S
N1341      H1345   1.045       .  S
N1341      H1346   1.045       .  S
N1344      H1347   1.043       .  S
N1344      H1348   1.042       .  S
C1349      C1350   1.389       .  A
C1349      C1354   1.387       .  A
C1349      H1356   1.085       .  S
C1350      C1351   1.418       .  A
C1351      C1352   1.397       .  A
C1351      N1358   1.438       .  S
C1352      C1353   1.397       .  A
C1352      H1357   1.084       .  S
C1353      C1354   1.416       .  A
C1354      N1355   1.436       .  S
N1355      H1359   1.046       .  S
N1355      H1360   1.046       .  S
N1358      H1361   1.043       .  S
N1358      H1362   1.045       .  S
C1363      C1364   1.399       .  A
C1363      C1368   1.403       .  A
C1363      H1370   1.084       .  S
C1364      C1365   1.422       .  A
C1365      C1366   1.413       .  A
C1365      N1372   1.438       .  S
C1366      C1367   1.405       .  A
C1366      H1371   1.084       .  S
C1367      C1368   1.422       .  A
C1368      N1369   1.433       .  S
N1369      H1373   1.044       .  S
N1369      H1374   1.046       .  S
N1372      H1375   1.043       .  S
N1372      H1376   1.046       .  S
C1377      C1378   1.406       .  A
C1377      C1382   1.415       .  A
C1377      H1384   1.084       .  S
C1378      C1379   1.414       .  A
C1379      C1380   1.394       .  A
C1379      N1386   1.438       .  S
C1380      C1381   1.405       .  A
C1380      H1385   1.084       .  S
C1381      C1382   1.415       .  A
C1382      N1383   1.437       .  S
N1383      H1387   1.046       .  S
N1383      H1388   1.045       .  S
N1386      H1389   1.042       .  S
N1386      H1390   1.045       .  S
C1391      C1392   1.401       .  A
C1391      C1396   1.386       .  A
C1391      H1398   1.085       .  S
C1392      C1393   1.404       .  A
C1393      C1394   1.384       .  A
C1393      N1400   1.433       .  S
C1394      C1395   1.400       .  A
C1394      H1399   1.085       .  S
C1395      C1396   1.406       .  A
C1396      N1397   1.438       .  S
N1397      H1401   1.046       .  S
N1397      H1402   1.042       .  S
N1400      H1403   1.046       .  S
N1400      H1404   1.044       .  S
C1405      C1406   1.396       .  A
C1405      C1410   1.398       .  A
C1405      H1412   1.084       .  S
C1406      C1407   1.419       .  A
C1407      C1408   1.392       .  A
C1407      N1414   1.439       .  S
C1408      C1409   1.396       .  A
C1408      H1413   1.084       .  S
C1409      C1410   1.413       .  A
C1410      N1411   1.433       .  S
N1411      H1415   1.046       .  S
N1411      H1416   1.046       .  S
N1414      H1417   1.043       .  S
N1414      H1418   1.043       .  S
C1419      C1420   1.392       .  A
C1419      C1424   1.383       .  A
C1419      H1426   1.083       .  S
C1420      C1421   1.407       .  A
C1421      C1422   1.401       .  A
C1421      N1428   1.431       .  S
C1422      C1423   1.399       .  A
C1422      H1427   1.084       .  S
C1423      C1424   1.410       .  A
C1424      N1425   1.432       .  S
N1425      H1429   1.046       .  S
N1425      H1430   1.046       .  S
N1428      H1431   1.046       .  S
N1428      H1432   1.045       .  S
C1433      C1434   1.403       .  A
C1433      C1438   1.412       .  A
C1433      H1440   1.081       .  S
C1434      C1435   1.421       .  A
C1435      C1436   1.414       .  A
C1435      N1442   1.437       .  S
C1436      C1437   1.410       .  A
C1436      H1441   1.083       .  S
C1437      C1438   1.423       .  A
C1438      N1439   1.438       .  S
N1439      H1443   1.046       .  S
N1439      H1444   1.046       .  S
N1442      H1445   1.044       .  S
N1442      H1446   1.045       .  S
C1447      C1448   1.411       .  A
C1447      C1452   1.414       .  A
C1447      H1454   1.083       .  S
C1448      C1449   1.407       .  A
C1449      C1450   1.411       .  A
C1449      N1456   1.430       .  S
C1450      C1451   1.411       .  A
C1450      H1455   1.084       .  S
C1451      C1452   1.418       .  A
C1452      N1453   1.432       .  S
N1453      H1457   1.045       .  S
N1453      H1458   1.046       .  S
N1456      H1459   1.045       .  S
N1456      H1460   1.045       .  S
C1461      C1462   1.406       .  A
C1461      C1466   1.388       .  A
C1461      H1468   1.084       .  S
C1462      C1463   1.413       .  A
C1463      C1464   1.403       .  A
C1463      N1470   1.437       .  S
C1464      C1465   1.401       .  A
C1464      H1469   1.084       .  S
C1465      C1466   1.409       .  A
C1466      N1467   1.440       .  S
N1467      H1471   1.046       .  S
N1467      H1472   1.043       .  S
N1470      H1473   1.046       .  S
N1470      H1474   1.046       .  S
C1475      C1476   1.410       .  A
C1475      C1480   1.383       .  A
C1475      H1482   1.084       .  S
C1476      C1477   1.404       .  A
C1477      C1478   1.388       .  A
C1477      N1484   1.432       .  S
C1478      C1479   1.399       .  A
C1478      H1483   1.085       .  S
C1479      C1480   1.402       .  A
C1480      N1481   1.439       .  S
N1481      H1485   1.046       .  S
N1481      H1486   1.043       .  S
N1484      H1487   1.046       .  S
N1484      H1488   1.046       .  S
C1489      C1490   1.408       .  A
C1489      C1494   1.394       .  A
C1489      H1496   1.084       .  S
C1490      C1491   1.410       .  A
C1491      C1492   1.391       .  A
C1491      N1498   1.433       .  S
C1492      C1493   1.399       .  A
C1492      H1497   1.084       .  S
C1493      C1494   1.408       .  A
C1494      N1495   1.439       .  S
N1495      H1499   1.046       .  S
N1495      H1500   1.043       .  S
N1498      H1501   1.046       .  S
N1498      H1502   1.046       .  S
C1503      C1504   1.398       .  A
C1503      C1508   1.387       .  A
C1503      H1510   1.085       .  S
C1504      C1505   1.399       .  A
C1505      C1506   1.394       .  A
C1505      N1512   1.437       .  S
C1506      C1507   1.401       .  A
C1506      H1511   1.084       .  S
C1507      C1508   1.412       .  A
C1508      N1509   1.440       .  S
N1509      H1513   1.045       .  S
N1509      H1514   1.041       .  S
N1512      H1515   1.045       .  S
N1512      H1516   1.046       .  S
C1517      C1518   1.407       .  A
C1517      C1522   1.406       .  A
C1517      H1524   1.084       .  S
C1518      C1519   1.414       .  A
C1519      C1520   1.400       .  A
C1519      N1526   1.432       .  S
C1520      C1521   1.403       .  A
C1520      H1525   1.082       .  S
C1521      C1522   1.407       .  A
C1522      N1523   1.437       .  S
N1523      H1527   1.046       .  S
N1523      H1528   1.045       .  S
N1526      H1529   1.046       .  S
N1526      H1530   1.045       .  S
C1531      C1532   1.402       .  A
C1531      C1536   1.380       .  A
C1531      H1538   1.085       .  S
C1532      C1533   1.400       .  A
C1533      C1534   1.392       .  A
C1533      N1540   1.437       .  S
C1534      C1535   1.403       .  A
C1534      H1539   1.084       .  S
C1535      C1536   1.398       .  A
C1536      N1537   1.439       .  S
N1537      H1541   1.046       .  S
N1537      H1542   1.045       .  S
N1540      H1543   1.046       .  S
N1540      H1544   1.046       .  S
C1545      C1546   1.408       .  A
C1545      C1550   1.393       .  A
C1545      H1552   1.084       .  S
C1546      C1547   1.407       .  A
C1547      C1548   1.395       .  A
C1547      N1554   1.433       .  S
C1548      C1549   1.401       .  A
C1548      H1553   1.082       .  S
C1549      C1550   1.407       .  A
C1550      N1551   1.439       .  S
N1551      H1555   1.046       .  S
N1551      H1556   1.043       .  S
N1554      H1557   1.046       .  S
N1554      H1558   1.046       .  S
C1559      C1560   1.405       .  A
C1559      C1564   1.392       .  A
C1559      H1566   1.084       .  S
C1560      C1561   1.401       .  A
C1561      C1562   1.391       .  A
C1561      N1568   1.438       .  S
C1562      C1563   1.415       .  A
C1562      H1567   1.084       .  S
C1563      C1564   1.409       .  A
C1564      N1565   1.432       .  S
N1565      H1569   1.045       .  S
N1565      H1570   1.045       .  S
N1568      H1571   1.043       .  S
N1568      H1572   1.046       .  S
C1573      C1574   1.394       .  A
C1573      C1578   1.403       .  A
C1573      H1580   1.084       .  S
C1574      C1575   1.409       .  A
C1575      C1576   1.387       .  A
C1575      N1582   1.434       .  S
C1576      C1577   1.394       .  A
C1576      H1581   1.079       .  S
C1577      C1578   1.423       .  A
C1578      N1579   1.436       .  S
N1579      H1583   1.046       .  S
N1579      H1584   1.045       .  S
N1582      H1585   1.032       .  S
N1582      H1586   1.046       .  S
C1587      C1588   1.398       .  A
C1587      C1592   1.405       .  A
C1587      H1594   1.084       .  S
C1588      C1589   1.415       .  A
C1589      C1590   1.403       .  A
C1589      N1596   1.437       .  S
C1590      C1591   1.397       .  A
C1590      H1595   1.084       .  S
C1591      C1592   1.411       .  A
C1592      N1593   1.438       .  S
N1593      H1597   1.046       .  S
N1593      H1598   1.046       .  S
N1596      H1599   1.042       .  S
N1596      H1600   1.046       .  S
C1601      C1602   1.397       .  A
C1601      C1606   1.400       .  A
C1601      H1608   1.084       .  S
C1602      C1603   1.419       .  A
C1603      C1604   1.416       .  A
C1603      N1610   1.437       .  S
C1604      C1605   1.409       .  A
C1604      H1609   1.083       .  S
C1605      C1606   1.418       .  A
C1606      N1607   1.433       .  S
N1607      H1611   1.046       .  S
N1607      H1612   1.046       .  S
N1610      H1613   1.044       .  S
N1610      H1614   1.046       .  S
C1615      C1616   1.392       .  A
C1615      C1620   1.393       .  A
C1615      H1622   1.084       .  S
C1616      C1617   1.420       .  A
C1617      C1618   1.406       .  A
C1617      N1624   1.438       .  S
C1618      C1619   1.398       .  A
C1618      H1623   1.084       .  S
C1619      C1620   1.415       .  A
C1620      N1621   1.439       .  S
N1621      H1625   1.046       .  S
N1621      H1626   1.046       .  S
N1624      H1627   1.043       .  S
N1624      H1628   1.045       .  S
C1629      C1630   1.406       .  A
C1629      C1634   1.409       .  A
C1629      H1636   1.082       .  S
C1630      C1631   1.415       .  A
C1631      C1632   1.404       .  A
C1631      N1638   1.437       .  S
C1632      C1633   1.406       .  A
C1632      H1637   1.084       .  S
C1633      C1634   1.412       .  A
C1634      N1635   1.437       .  S
N1635      H1639   1.046       .  S
N1635      H1640   1.046       .  S
N1638      H1641   1.043       .  S
N1638      H1642   1.045       .  S
C1643      C1644   1.414       .  A
C1643      C1648   1.412       .  A
C1643      H1650   1.075       .  S
C1644      C1645   1.421       .  A
C1645      C1646   1.418       .  A
C1645      N1652   1.436       .  S
C1646      C1647   1.410       .  A
C1646      H1651   1.082       .  S
C1647      C1648   1.418       .  A
C1648      N1649   1.428       .  S
N1649      H1653   1.040       .  S
N1649      H1654   1.045       .  S
N1652      H1655   1.043       .  S
N1652      H1656   1.046       .  S
C1657      C1658   1.404       .  A
C1657      C1662   1.408       .  A
C1657      H1664   1.083       .  S
C1658      C1659   1.412       .  A
C1659      C1660   1.398       .  A
C1659      N1666   1.437       .  S
C1660      C1661   1.411       .  A
C1660      H1665   1.070       .  S
C1661      C1662   1.427       .  A
C1662      N1663   1.437       .  S
N1663      H1667   1.045       .  S
N1663      H1668   1.043       .  S
N1666      H1669   1.044       .  S
N1666      H1670   1.046       .  S
C1671      C1672   1.418       .  A
C1671      C1676   1.422       .  A
C1671      H1678   1.080       .  S
C1672      C1673   1.423       .  A
C1673      C1674   1.410       .  A
C1673      N1680   1.437       .  S
C1674      C1675   1.404       .  A
C1674      H1679   1.081       .  S
C1675      C1676   1.416       .  A
C1676      N1677   1.436       .  S
N1677      H1681   1.045       .  S
N1677      H1682   1.045       .  S
N1680      H1683   1.046       .  S
N1680      H1684   1.046       .  S
C1685      C1686   1.397       .  A
C1685      C1690   1.402       .  A
C1685      H1692   1.083       .  S
C1686      C1687   1.405       .  A
C1687      C1688   1.373       .  A
C1687      N1694   1.432       .  S
C1688      C1689   1.393       .  A
C1688      H1693   1.076       .  S
C1689      C1690   1.418       .  A
C1690      N1691   1.438       .  S
N1691      H1695   1.046       .  S
N1691      H1696   1.043       .  S
N1694      H1697   1.046       .  S
N1694      H1698   1.046       .  S
C1699      C1700   1.416       .  A
C1699      C1704   1.436       .  A
C1699      H1706   1.083       .  S
C1700      C1701   1.422       .  A
C1701      C1702   1.443       .  A
C1701      N1708   1.435       .  S
C1702      C1703   1.425       .  A
C1702      H1707   1.081       .  S
C1703      C1704   1.439       .  A
C1704      N1705   1.431       .  S
N1705      H1709   1.040       .  S
N1705      H1710   1.045       .  S
N1708      H1711   1.045       .  S
N1708      H1712   1.045       .  S
C1713      C1714   1.408       .  A
C1713      C1718   1.409       .  A
C1713      H1720   1.082       .  S
C1714      C1715   1.406       .  A
C1715      C1716   1.413       .  A
C1715      N1722   1.436       .  S
C1716      C1717   1.415       .  A
C1716      H1721   1.083       .  S
C1717      C1718   1.419       .  A
C1718      N1719   1.431       .  S
N1719      H1723   1.045       .  S
N1719      H1724   1.045       .  S
N1722      H1725   1.046       .  S
N1722      H1726   1.046       .  S
C1727      C1728   1.426       .  A
C1727      C1732   1.438       .  A
C1727      H1734   1.075       .  S
C1728      C1729   1.435       .  A
C1729      C1730   1.440       .  A
C1729      N1736   1.420       .  S
C1730      C1731   1.419       .  A
C1730      H1735   1.079       .  S
C1731      C1732   1.437       .  A
C1732      N1733   1.432       .  S
N1733      H1737   1.042       .  S
N1733      H1738   1.040       .  S
N1736      H1739   1.045       .  S
N1736      H1740   1.046       .  S
C1741      C1742   1.418       .  A
C1741      C1746   1.443       .  A
C1741      H1748   1.075       .  S
C1742      C1743   1.431       .  A
C1743      C1744   1.446       .  A
C1743      N1750   1.430       .  S
C1744      C1745   1.421       .  A
C1744      H1749   1.072       .  S
C1745      C1746   1.435       .  A
C1746      N1747   1.431       .  S
N1747      H1751   1.045       .  S
N1747      H1752   1.046       .  S
N1750      H1753   1.045       .  S
N1750      H1754   1.045       .  S
C1755      C1756   1.397       .  A
C1755      C1760   1.398       .  A
C1755      H1762   1.084       .  S
C1756      C1757   1.406       .  A
C1757      C1758   1.398       .  A
C1757      N1764   1.442       .  S
C1758      C1759   1.409       .  A
C1758      H1763   1.083       .  S
C1759      C1760   1.421       .  A
C1760      N1761   1.432       .  S
N1761      H1765   1.045       .  S
N1761      H1766   1.046   1_655  S
N1764      H1767   1.043       .  S
N1764      H1768   1.045       .  S
C1769      C1770   1.403       .  A
C1769      C1774   1.406       .  A
C1769      H1776   1.081       .  S
C1770      C1771   1.416       .  A
C1771      C1772   1.400       .  A
C1771      N1778   1.436       .  S
C1772      C1773   1.399       .  A
C1772      H1777   1.084       .  S
C1773      C1774   1.409       .  A
C1774      N1775   1.438       .  S
N1775      H1779   1.046       .  S
N1775      H1780   1.046       .  S
N1778      H1781   1.041       .  S
N1778      H1782   1.045       .  S
C1783      C1784   1.396       .  A
C1783      C1788   1.400       .  A
C1783      H1790   1.084       .  S
C1784      C1785   1.403       .  A
C1785      C1786   1.392       .  A
C1785      N1792   1.439       .  S
C1786      C1787   1.403       .  A
C1786      H1791   1.083       .  S
C1787      C1788   1.413       .  A
C1788      N1789   1.437       .  S
N1789      H1793   1.046       .  S
N1789      H1794   1.045       .  S
N1792      H1795   1.043       .  S
N1792      H1796   1.046       .  S
C1797      C1798   1.405       .  A
C1797      C1802   1.401       .  A
C1797      H1804   1.083       .  S
C1798      C1799   1.420       .  A
C1799      C1800   1.410       .  A
C1799      N1806   1.430   1_655  S
C1800      C1801   1.401       .  A
C1800      H1805   1.074       .  S
C1801      C1802   1.418       .  A
C1802      N1803   1.438       .  S
N1803      H1807   1.045       .  S
N1803      H1808   1.044       .  S
N1806      H1809   1.046       .  S
N1806      H1810   1.046       .  S
C1811      C1812   1.397       .  A
C1811      C1816   1.390       .  A
C1811      H1818   1.084       .  S
C1812      C1813   1.419       .  A
C1813      C1814   1.394       .  A
C1813      N1820   1.438       .  S
C1814      C1815   1.394       .  A
C1814      H1819   1.084       .  S
C1815      C1816   1.407       .  A
C1816      N1817   1.436       .  S
N1817      H1821   1.046       .  S
N1817      H1822   1.046       .  S
N1820      H1823   1.041       .  S
N1820      H1824   1.045       .  S
C1825      C1826   1.412       .  A
C1825      C1830   1.419       .  A
C1825      H1832   1.083       .  S
C1826      C1827   1.416       .  A
C1827      C1828   1.420       .  A
C1827      N1834   1.431       .  S
C1828      C1829   1.411       .  A
C1828      H1833   1.084       .  S
C1829      C1830   1.423       .  A
C1830      N1831   1.438       .  S
N1831      H1835   1.045       .  S
N1831      H1836   1.043       .  S
N1834      H1837   1.045       .  S
N1834      H1838   1.045       .  S
C1839      C1840   1.407       .  A
C1839      C1844   1.403       .  A
C1839      H1846   1.084       .  S
C1840      C1841   1.406       .  A
C1841      C1842   1.398       .  A
C1841      N1848   1.432       .  S
C1842      C1843   1.405       .  A
C1842      H1847   1.084       .  S
C1843      C1844   1.409       .  A
C1844      N1845   1.436       .  S
N1845      H1849   1.045       .  S
N1845      H1850   1.044       .  S
N1848      H1851   1.046       .  S
N1848      H1852   1.046       .  S
C1853      C1854   1.416       .  A
C1853      C1858   1.431       .  A
C1853      H1860   1.083       .  S
C1854      C1855   1.419       .  A
C1855      C1856   1.411       .  A
C1855      N1862   1.440       .  S
C1856      C1857   1.418       .  A
C1856      H1861   1.072       .  S
C1857      C1858   1.430       .  A
C1858      N1859   1.430       .  S
N1859      H1863   1.042       .  S
N1859      H1864   1.045       .  S
N1862      H1865   1.041       .  S
N1862      H1866   1.045       .  S
C1867      C1868   1.405       .  A
C1867      C1872   1.401       .  A
C1867      H1874   1.084       .  S
C1868      C1869   1.412       .  A
C1869      C1870   1.402       .  A
C1869      N1876   1.429       .  S
C1870      C1871   1.397       .  A
C1870      H1875   1.084       .  S
C1871      C1872   1.418       .  A
C1872      N1873   1.440       .  S
N1873      H1877   1.045       .  S
N1873      H1878   1.042       .  S
N1876      H1879   1.046       .  S
N1876      H1880   1.046       .  S
C1881      C1882   1.397       .  A
C1881      C1886   1.393       .  A
C1881      H1888   1.083       .  S
C1882      C1883   1.406       .  A
C1883      C1884   1.388       .  A
C1883      N1890   1.432       .  S
C1884      C1885   1.395       .  A
C1884      H1889   1.085       .  S
C1885      C1886   1.406       .  A
C1886      N1887   1.439       .  S
N1887      H1891   1.046       .  S
N1887      H1892   1.045       .  S
N1890      H1893   1.045       .  S
N1890      H1894   1.045       .  S
C1895      C1896   1.409       .  A
C1895      C1900   1.409       .  A
C1895      H1902   1.081       .  S
C1896      C1897   1.415       .  A
C1897      C1898   1.413       .  A
C1897      N1904   1.426       .  S
C1898      C1899   1.413       .  A
C1898      H1903   1.083       .  S
C1899      C1900   1.413       .  A
C1900      N1901   1.437       .  S
N1901      H1905   1.046       .  S
N1901      H1906   1.045       .  S
N1904      H1907   1.046       .  S
N1904      H1908   1.046       .  S
C1909      C1910   1.407       .  A
C1909      C1914   1.403       .  A
C1909      H1916   1.082       .  S
C1910      C1911   1.413       .  A
C1911      C1912   1.415       .  A
C1911      N1918   1.436       .  S
C1912      C1913   1.405       .  A
C1912      H1917   1.083       .  S
C1913      C1914   1.413       .  A
C1914      N1915   1.432       .  S
N1915      H1919   1.046       .  S
N1915      H1920   1.045       .  S
N1918      H1921   1.046       .  S
N1918      H1922   1.046       .  S
C1923      C1924   1.394       .  A
C1923      C1928   1.381       .  A
C1923      H1930   1.085       .  S
C1924      C1925   1.408       .  A
C1925      C1926   1.388       .  A
C1925      N1932   1.433       .  S
C1926      C1927   1.396       .  A
C1926      H1931   1.084       .  S
C1927      C1928   1.408       .  A
C1928      N1929   1.441       .  S
N1929      H1933   1.046       .  S
N1929      H1934   1.043       .  S
N1932      H1935   1.044       .  S
N1932      H1936   1.045       .  S
C1937      C1938   1.401       .  A
C1937      C1942   1.412       .  A
C1937      H1944   1.084       .  S
C1938      C1939   1.404       .  A
C1939      C1940   1.398       .  A
C1939      N1946   1.437       .  S
C1940      C1941   1.409       .  A
C1940      H1945   1.083       .  S
C1941      C1942   1.420       .  A
C1942      N1943   1.437       .  S
N1943      H1947   1.046       .  S
N1943      H1948   1.046       .  S
N1946      H1949   1.045       .  S
N1946      H1950   1.045       .  S
C1951      C1952   1.402       .  A
C1951      C1956   1.388       .  A
C1951      H1958   1.079       .  S
C1952      C1953   1.418       .  A
C1953      C1954   1.408       .  A
C1953      N1960   1.437       .  S
C1954      C1955   1.402       .  A
C1954      H1959   1.083       .  S
C1955      C1956   1.403       .  A
C1956      N1957   1.439       .  S
N1957      H1961   1.046       .  S
N1957      H1962   1.046       .  S
N1960      H1963   1.043       .  S
N1960      H1964   1.045       .  S
C1965      C1966   1.400       .  A
C1965      C1970   1.404       .  A
C1965      H1972   1.084       .  S
C1966      C1967   1.404       .  A
C1967      C1968   1.385       .  A
C1967      N1974   1.430       .  S
C1968      C1969   1.402       .  A
C1968      H1973   1.084       .  S
C1969      C1970   1.414       .  A
C1970      N1971   1.437       .  S
N1971      H1975   1.046       .  S
N1971      H1976   1.045       .  S
N1974      H1977   1.045       .  S
N1974      H1978   1.046       .  S
C1979      C1980   1.422       .  A
C1979      C1984   1.437       .  A
C1979      H1986   1.082       .  S
C1980      C1981   1.433       .  A
C1981      C1982   1.450       .  A
C1981      N1988   1.436       .  S
C1982      C1983   1.434       .  A
C1982      H1987   1.083       .  S
C1983      C1984   1.425       .  A
C1984      N1985   1.431       .  S
N1985      H1989   1.046       .  S
N1985      H1990   1.046       .  S
N1988      H1991   1.043       .  S
N1988      H1992   1.046       .  S
C1993      C1994   1.396       .  A
C1993      C1998   1.395       .  A
C1993      H2000   1.085       .  S
C1994      C1995   1.414       .  A
C1995      C1996   1.397       .  A
C1995      N2002   1.439       .  S
C1996      C1997   1.407       .  A
C1996      H2001   1.084       .  S
C1997      C1998   1.423       .  A
C1998      N1999   1.433       .  S
N1999      H2003   1.045       .  S
N1999      H2004   1.045       .  S
N2002      H2005   1.044       .  S
N2002      H2006   1.045       .  S
C2007      C2008   1.411       .  A
C2007      C2012   1.419       .  A
C2007      H2014   1.083       .  S
C2008      C2009   1.402       .  A
C2009      C2010   1.406       .  A
C2009      N2016   1.432       .  S
C2010      C2011   1.410       .  A
C2010      H2015   1.084       .  S
C2011      C2012   1.410       .  A
C2012      N2013   1.436       .  S
N2013      H2017   1.046       .  S
N2013      H2018   1.046       .  S
N2016      H2019   1.045       .  S
N2016      H2020   1.046       .  S
C2021      C2022   1.409       .  A
C2021      C2026   1.421       .  A
C2021      H2028   1.083       .  S
C2022      C2023   1.425       .  A
C2023      C2024   1.405       .  A
C2023      N2030   1.433       .  S
C2024      C2025   1.394       .  A
C2024      H2029   1.081       .  S
C2025      C2026   1.426       .  A
C2026      N2027   1.437       .  S
N2027      H2031   1.045       .  S
N2027      H2032   1.044       .  S
N2030      H2033   1.046       .  S
N2030      H2034   1.046       .  S
C2035      C2036   1.408       .  A
C2035      C2040   1.414       .  A
C2035      H2042   1.083       .  S
C2036      C2037   1.416       .  A
C2037      C2038   1.404       .  A
C2037      N2044   1.431       .  S
C2038      C2039   1.400       .  A
C2038      H2043   1.084       .  S
C2039      C2040   1.411       .  A
C2040      N2041   1.437       .  S
N2041      H2045   1.046       .  S
N2041      H2046   1.046       .  S
N2044      H2047   1.045       .  S
N2044      H2048   1.046       .  S
C2049      C2050   1.397       .  A
C2049      C2054   1.392       .  A
C2049      H2056   1.083       .  S
C2050      C2051   1.416       .  A
C2051      C2052   1.404       .  A
C2051      N2058   1.438       .  S
C2052      C2053   1.406       .  A
C2052      H2057   1.084       .  S
C2053      C2054   1.408       .  A
C2054      N2055   1.433       .  S
N2055      H2059   1.046       .  S
N2055      H2060   1.046       .  S
N2058      H2061   1.046       .  S
N2058      H2062   1.043       .  S
C2063      C2064   1.395       .  A
C2063      C2068   1.394       .  A
C2063      H2070   1.084       .  S
C2064      C2065   1.404       .  A
C2065      C2066   1.393       .  A
C2065      N2072   1.432       .  S
C2066      C2067   1.397       .  A
C2066      H2071   1.084       .  S
C2067      C2068   1.412       .  A
C2068      N2069   1.439       .  S
N2069      H2073   1.046       .  S
N2069      H2074   1.046       .  S
N2072      H2075   1.046       .  S
N2072      H2076   1.045       .  S
C2077      C2078   1.410       .  A
C2077      C2082   1.393       .  A
C2077      H2084   1.084       .  S
C2078      C2079   1.406       .  A
C2079      C2080   1.397       .  A
C2079      N2086   1.438       .  S
C2080      C2081   1.406       .  A
C2080      H2085   1.078       .  S
C2081      C2082   1.408       .  A
C2082      N2083   1.438       .  S
N2083      H2087   1.046       .  S
N2083      H2088   1.044       .  S
N2086      H2089   1.046       .  S
N2086      H2090   1.046       .  S
C2091      C2092   1.406       .  A
C2091      C2096   1.424       .  A
C2091      H2098   1.083       .  S
C2092      C2093   1.413       .  A
C2093      C2094   1.424       .  A
C2093      N2100   1.429       .  S
C2094      C2095   1.417       .  A
C2094      H2099   1.082       .  S
C2095      C2096   1.428       .  A
C2096      N2097   1.430       .  S
N2097      H2101   1.046       .  S
N2097      H2102   1.046   1_455  S
N2100      H2103   1.045       .  S
N2100      H2104   1.045       .  S
C2105      C2106   1.402       .  A
C2105      C2110   1.415       .  A
C2105      H2112   1.083       .  S
C2106      C2107   1.407       .  A
C2107      C2108   1.404       .  A
C2107      N2114   1.432       .  S
C2108      C2109   1.406       .  A
C2108      H2113   1.084       .  S
C2109      C2110   1.420       .  A
C2110      N2111   1.437       .  S
N2111      H2115   1.046       .  S
N2111      H2116   1.045       .  S
N2114      H2117   1.045       .  S
N2114      H2118   1.044       .  S
C2119      C2120   1.397       .  A
C2119      C2124   1.394       .  A
C2119      H2126   1.085       .  S
C2120      C2121   1.412       .  A
C2121      C2122   1.393       .  A
C2121      N2128   1.439       .  S
C2122      C2123   1.399       .  A
C2122      H2127   1.084       .  S
C2123      C2124   1.408       .  A
C2124      N2125   1.436       .  S
N2125      H2129   1.046       .  S
N2125      H2130   1.045       .  S
N2128      H2131   1.043       .  S
N2128      H2132   1.046       .  S
C2133      C2134   1.399       .  A
C2133      C2138   1.399       .  A
C2133      H2140   1.084       .  S
C2134      C2135   1.408       .  A
C2135      C2136   1.396       .  A
C2135      N2142   1.433       .  S
C2136      C2137   1.409       .  A
C2136      H2141   1.084       .  S
C2137      C2138   1.412       .  A
C2138      N2139   1.432       .  S
N2139      H2143   1.046       .  S
N2139      H2144   1.046       .  S
N2142      H2145   1.045       .  S
N2142      H2146   1.043       .  S
C2147      C2148   1.408       .  A
C2147      C2152   1.410       .  A
C2147      H2154   1.084       .  S
C2148      C2149   1.419       .  A
C2149      C2150   1.412       .  A
C2149      N2156   1.438       .  S
C2150      C2151   1.408       .  A
C2150      H2155   1.084       .  S
C2151      C2152   1.418       .  A
C2152      N2153   1.438       .  S
N2153      H2157   1.045       .  S
N2153      H2158   1.043       .  S
N2156      H2159   1.043       .  S
N2156      H2160   1.046       .  S
C2161      C2162   1.407       .  A
C2161      C2166   1.385       .  A
C2161      H2168   1.084       .  S
C2162      C2163   1.412       .  A
C2163      C2164   1.404       .  A
C2163      N2170   1.437       .  S
C2164      C2165   1.400       .  A
C2164      H2169   1.083       .  S
C2165      C2166   1.395       .  A
C2166      N2167   1.433       .  S
N2167      H2171   1.045       .  S
N2167      H2172   1.046       .  S
N2170      H2173   1.046       .  S
N2170      H2174   1.046       .  S
C2175      C2176   1.401       .  A
C2175      C2180   1.397       .  A
C2175      H2182   1.078   1_455  S
C2176      C2177   1.406       .  A
C2177      C2178   1.388       .  A
C2177      N2184   1.437       .  S
C2178      C2179   1.406       .  A
C2178      H2183   1.082       .  S
C2179      C2180   1.409       .  A
C2180      N2181   1.432   1_455  S
N2181      H2185   1.045   1_655  S
N2181      H2186   1.046       .  S
N2184      H2187   1.044       .  S
N2184      H2188   1.046       .  S
C2189      C2190   1.394       .  A
C2189      C2194   1.388       .  A
C2189      H2196   1.084       .  S
C2190      C2191   1.405       .  A
C2191      C2192   1.379       .  A
C2191      N2198   1.432       .  S
C2192      C2193   1.393       .  A
C2192      H2197   1.084       .  S
C2193      C2194   1.408       .  A
C2194      N2195   1.433       .  S
N2195      H2199   1.046       .  S
N2195      H2200   1.045       .  S
N2198      H2201   1.045       .  S
N2198      H2202   1.045       .  S
C2203      C2204   1.394       .  A
C2203      C2208   1.397       .  A
C2203      H2210   1.084       .  S
C2204      C2205   1.420       .  A
C2205      C2206   1.390       .  A
C2205      N2212   1.438       .  S
C2206      C2207   1.395       .  A
C2206      H2211   1.084       .  S
C2207      C2208   1.414       .  A
C2208      N2209   1.438       .  S
N2209      H2213   1.045       .  S
N2209      H2214   1.046       .  S
N2212      H2215   1.042       .  S
N2212      H2216   1.044       .  S
C2217      C2218   1.396       .  A
C2217      C2222   1.388       .  A
C2217      H2224   1.084       .  S
C2218      C2219   1.409       .  A
C2219      C2220   1.385       .  A
C2219      N2226   1.433       .  S
C2220      C2221   1.390       .  A
C2220      H2225   1.084       .  S
C2221      C2222   1.403       .  A
C2222      N2223   1.432       .  S
N2223      H2227   1.045       .  S
N2223      H2228   1.045       .  S
N2226      H2229   1.046       .  S
N2226      H2230   1.046       .  S
C2231      C2232   1.396       .  A
C2231      C2236   1.404       .  A
C2231      H2238   1.083   1_565  S
C2232      C2233   1.418       .  A
C2233      C2234   1.407       .  A
C2233      N2240   1.439       .  S
C2234      C2235   1.408       .  A
C2234      H2239   1.082       .  S
C2235      C2236   1.424       .  A
C2236      N2237   1.429       .  S
N2237      H2241   1.046       .  S
N2237      H2242   1.046       .  S
N2240      H2243   1.043       .  S
N2240      H2244   1.046       .  S
C2245      C2246   1.405       .  A
C2245      C2250   1.400       .  A
C2245      H2252   1.082       .  S
C2246      C2247   1.401       .  A
C2247      C2248   1.396       .  A
C2247      N2254   1.432       .  S
C2248      C2249   1.406       .  A
C2248      H2253   1.084       .  S
C2249      C2250   1.407       .  A
C2250      N2251   1.438       .  S
N2251      H2255   1.046       .  S
N2251      H2256   1.046       .  S
N2254      H2257   1.045       .  S
N2254      H2258   1.046       .  S
C2259      C2260   1.403       .  A
C2259      C2264   1.394       .  A
C2259      H2266   1.084       .  S
C2260      C2261   1.414       .  A
C2261      C2262   1.402       .  A
C2261      N2268   1.431       .  S
C2262      C2263   1.402       .  A
C2262      H2267   1.084       .  S
C2263      C2264   1.402       .  A
C2264      N2265   1.432       .  S
N2265      H2269   1.046       .  S
N2265      H2270   1.045       .  S
N2268      H2271   1.045       .  S
N2268      H2272   1.044       .  S
C2273      C2274   1.405       .  A
C2273      C2278   1.390       .  A
C2273      H2280   1.082       .  S
C2274      C2275   1.410       .  A
C2275      C2276   1.405       .  A
C2275      N2282   1.431       .  S
C2276      C2277   1.407       .  A
C2276      H2281   1.083       .  S
C2277      C2278   1.402       .  A
C2278      N2279   1.432       .  S
N2279      H2283   1.045       .  S
N2279      H2284   1.046       .  S
N2282      H2285   1.045       .  S
N2282      H2286   1.046       .  S
C2287      C2288   1.395       .  A
C2287      C2292   1.393       .  A
C2287      H2294   1.084       .  S
C2288      C2289   1.409       .  A
C2289      C2290   1.390       .  A
C2289      N2296   1.438       .  S
C2290      C2291   1.403       .  A
C2290      H2295   1.084       .  S
C2291      C2292   1.418       .  A
C2292      N2293   1.440       .  S
N2293      H2297   1.046       .  S
N2293      H2298   1.046       .  S
N2296      H2299   1.044       .  S
N2296      H2300   1.045       .  S
C2301      C2302   1.397       .  A
C2301      C2306   1.411       .  A
C2301      H2308   1.082       .  S
C2302      C2303   1.418       .  A
C2303      C2304   1.430       .  A
C2303      N2310   1.436       .  S
C2304      C2305   1.414       .  A
C2304      H2309   1.079       .  S
C2305      C2306   1.430       .  A
C2306      N2307   1.433   1_655  S
N2307      H2311   1.046       .  S
N2307      H2312   1.043       .  S
N2310      H2313   1.045       .  S
N2310      H2314   1.045       .  S
C2315      C2316   1.408       .  A
C2315      C2320   1.406       .  A
C2315      H2322   1.084       .  S
C2316      C2317   1.414       .  A
C2317      C2318   1.409       .  A
C2317      N2324   1.438       .  S
C2318      C2319   1.409       .  A
C2318      H2323   1.083       .  S
C2319      C2320   1.404       .  A
C2320      N2321   1.431       .  S
N2321      H2325   1.045       .  S
N2321      H2326   1.046       .  S
N2324      H2327   1.044       .  S
N2324      H2328   1.045       .  S
C2329      C2330   1.399       .  A
C2329      C2334   1.407   1_655  A
C2329      H2336   1.084       .  S
C2330      C2331   1.417       .  A
C2331      C2332   1.391       .  A
C2331      N2338   1.432       .  S
C2332      C2333   1.392   1_655  A
C2332      H2337   1.084       .  S
C2333      C2334   1.421       .  A
C2334      N2335   1.437       .  S
N2335      H2339   1.045       .  S
N2335      H2340   1.043       .  S
N2338      H2341   1.046       .  S
N2338      H2342   1.046       .  S
C2343      C2344   1.400       .  A
C2343      C2348   1.410       .  A
C2343      H2350   1.084       .  S
C2344      C2345   1.424       .  A
C2345      C2346   1.409       .  A
C2345      N2352   1.440       .  S
C2346      C2347   1.401       .  A
C2346      H2351   1.084       .  S
C2347      C2348   1.425       .  A
C2348      N2349   1.438       .  S
N2349      H2353   1.045       .  S
N2349      H2354   1.043   1_556  S
N2352      H2355   1.043       .  S
N2352      H2356   1.046       .  S
C2357      C2358   1.391       .  A
C2357      C2362   1.383       .  A
C2357      H2364   1.085       .  S
C2358      C2359   1.404       .  A
C2359      C2360   1.387       .  A
C2359      N2366   1.433       .  S
C2360      C2361   1.395       .  A
C2360      H2365   1.085       .  S
C2361      C2362   1.416       .  A
C2362      N2363   1.429       .  S
N2363      H2367   1.042       .  S
N2363      H2368   1.041       .  S
N2366      H2369   1.046       .  S
N2366      H2370   1.046       .  S
C2371      C2372   1.398       .  A
C2371      C2376   1.382       .  A
C2371      H2378   1.084       .  S
C2372      C2373   1.407       .  A
C2373      C2374   1.391       .  A
C2373      N2380   1.433       .  S
C2374      C2375   1.396       .  A
C2374      H2379   1.084       .  S
C2375      C2376   1.401       .  A
C2376      N2377   1.435       .  S
N2377      H2381   1.046       .  S
N2377      H2382   1.043       .  S
N2380      H2383   1.046       .  S
N2380      H2384   1.046       .  S
C2385      C2386   1.401       .  A
C2385      C2390   1.396       .  A
C2385      H2392   1.084       .  S
C2386      C2387   1.419       .  A
C2387      C2388   1.397       .  A
C2387      N2394   1.439       .  S
C2388      C2389   1.391       .  A
C2388      H2393   1.084       .  S
C2389      C2390   1.406       .  A
C2390      N2391   1.439       .  S
N2391      H2395   1.045       .  S
N2391      H2396   1.045       .  S
N2394      H2397   1.046       .  S
N2394      H2398   1.046       .  S
C2399      C2400   1.398       .  A
C2399      C2404   1.382       .  A
C2399      H2406   1.084       .  S
C2400      C2401   1.419       .  A
C2401      C2402   1.395       .  A
C2401      N2408   1.433       .  S
C2402      C2403   1.396       .  A
C2402      H2407   1.084       .  S
C2403      C2404   1.403       .  A
C2404      N2405   1.430       .  S
N2405      H2409   1.046       .  S
N2405      H2410   1.045       .  S
N2408      H2411   1.044       .  S
N2408      H2412   1.046       .  S
C2413      C2414   1.400       .  A
C2413      C2418   1.396       .  A
C2413      H2420   1.083       .  S
C2414      C2415   1.404       .  A
C2415      C2416   1.404       .  A
C2415      N2422   1.431       .  S
C2416      C2417   1.402       .  A
C2416      H2421   1.082       .  S
C2417      C2418   1.415       .  A
C2418      N2419   1.438       .  S
N2419      H2423   1.046       .  S
N2419      H2424   1.043       .  S
N2422      H2425   1.046       .  S
N2422      H2426   1.046       .  S
C2427      C2428   1.417       .  A
C2427      C2432   1.417       .  A
C2427      H2434   1.083       .  S
C2428      C2429   1.429       .  A
C2429      C2430   1.419       .  A
C2429      N2436   1.435       .  S
C2430      C2431   1.402       .  A
C2430      H2435   1.084       .  S
C2431      C2432   1.418       .  A
C2432      N2433   1.437       .  S
N2433      H2437   1.045       .  S
N2433      H2438   1.044       .  S
N2436      H2439   1.044       .  S
N2436      H2440   1.046       .  S
C2441      C2442   1.401       .  A
C2441      C2446   1.408       .  A
C2441      H2448   1.083       .  S
C2442      C2443   1.406       .  A
C2443      C2444   1.401       .  A
C2443      N2450   1.438       .  S
C2444      C2445   1.404       .  A
C2444      H2449   1.080       .  S
C2445      C2446   1.410       .  A
C2446      N2447   1.431       .  S
N2447      H2451   1.045       .  S
N2447      H2452   1.046       .  S
N2450      H2453   1.045       .  S
N2450      H2454   1.046       .  S
C2455      C2456   1.408       .  A
C2455      C2460   1.407       .  A
C2455      H2462   1.083       .  S
C2456      C2457   1.419       .  A
C2457      C2458   1.414       .  A
C2457      N2464   1.436       .  S
C2458      C2459   1.403       .  A
C2458      H2463   1.082       .  S
C2459      C2460   1.416       .  A
C2460      N2461   1.438       .  S
N2461      H2465   1.046   1_565  S
N2461      H2466   1.043       .  S
N2464      H2467   1.046       .  S
N2464      H2468   1.046       .  S
C2469      C2470   1.413       .  A
C2469      C2474   1.400       .  A
C2469      H2476   1.081       .  S
C2470      C2471   1.424       .  A
C2471      C2472   1.410       .  A
C2471      N2478   1.435       .  S
C2472      C2473   1.399       .  A
C2472      H2477   1.083       .  S
C2473      C2474   1.410       .  A
C2474      N2475   1.440       .  S
N2475      H2479   1.044       .  S
N2475      H2480   1.043       .  S
N2478      H2481   1.046       .  S
N2478      H2482   1.046       .  S
C2483      C2484   1.404       .  A
C2483      C2488   1.415       .  A
C2483      H2490   1.083       .  S
C2484      C2485   1.420       .  A
C2485      C2486   1.405       .  A
C2485      N2492   1.431       .  S
C2486      C2487   1.401       .  A
C2486      H2491   1.080       .  S
C2487      C2488   1.413       .  A
C2488      N2489   1.430       .  S
N2489      H2493   1.045       .  S
N2489      H2494   1.045       .  S
N2492      H2495   1.046       .  S
N2492      H2496   1.040       .  S
C2497      C2498   1.398       .  A
C2497      C2502   1.407       .  A
C2497      H2504   1.083       .  S
C2498      C2499   1.407       .  A
C2499      C2500   1.405       .  A
C2499      N2506   1.437       .  S
C2500      C2501   1.403       .  A
C2500      H2505   1.083       .  S
C2501      C2502   1.415       .  A
C2502      N2503   1.430       .  S
N2503      H2507   1.045       .  S
N2503      H2508   1.045   1_545  S
N2506      H2509   1.046       .  S
N2506      H2510   1.046       .  S
C2511      C2512   1.415       .  A
C2511      C2516   1.416       .  A
C2511      H2518   1.083       .  S
C2512      C2513   1.415       .  A
C2513      C2514   1.412       .  A
C2513      N2520   1.431       .  S
C2514      C2515   1.410   1_556  A
C2514      H2519   1.084   1_556  S
C2515      C2516   1.409   1_554  A
C2516      N2517   1.438   1_556  S
N2517      H2521   1.046       .  S
N2517      H2522   1.044       .  S
N2520      H2523   1.046       .  S
N2520      H2524   1.044       .  S
C2525      C2526   1.425       .  A
C2525      C2530   1.421       .  A
C2525      H2532   1.079       .  S
C2526      C2527   1.431       .  A
C2527      C2528   1.425       .  A
C2527      N2534   1.430       .  S
C2528      C2529   1.411       .  A
C2528      H2533   1.083       .  S
C2529      C2530   1.409       .  A
C2530      N2531   1.438       .  S
N2531      H2535   1.045       .  S
N2531      H2536   1.044       .  S
N2534      H2537   1.041       .  S
N2534      H2538   1.045       .  S
C2539      C2540   1.405       .  A
C2539      C2544   1.416       .  A
C2539      H2546   1.083       .  S
C2540      C2541   1.409       .  A
C2541      C2542   1.411       .  A
C2541      N2548   1.431       .  S
C2542      C2543   1.407       .  A
C2542      H2547   1.083       .  S
C2543      C2544   1.424       .  A
C2544      N2545   1.436       .  S
N2545      H2549   1.045       .  S
N2545      H2550   1.042       .  S
N2548      H2551   1.046       .  S
N2548      H2552   1.046       .  S
C2553      C2554   1.405       .  A
C2553      C2558   1.404       .  A
C2553      H2560   1.075       .  S
C2554      C2555   1.438       .  A
C2555      C2556   1.399       .  A
C2555      N2562   1.434       .  S
C2556      C2557   1.391       .  A
C2556      H2561   1.084       .  S
C2557      C2558   1.419       .  A
C2558      N2559   1.438       .  S
N2559      H2563   1.046       .  S
N2559      H2564   1.043       .  S
N2562      H2565   1.043       .  S
N2562      H2566   1.040       .  S
C2567      C2568   1.402       .  A
C2567      C2572   1.407       .  A
C2567      H2574   1.084       .  S
C2568      C2569   1.423       .  A
C2569      C2570   1.416       .  A
C2569      N2576   1.437       .  S
C2570      C2571   1.406       .  A
C2570      H2575   1.083       .  S
C2571      C2572   1.425       .  A
C2572      N2573   1.434       .  S
N2573      H2577   1.041       .  S
N2573      H2578   1.046       .  S
N2576      H2579   1.044       .  S
N2576      H2580   1.046       .  S
C2581      C2582   1.406       .  A
C2581      C2586   1.413       .  A
C2581      H2588   1.081       .  S
C2582      C2583   1.413       .  A
C2583      C2584   1.419       .  A
C2583      N2590   1.430       .  S
C2584      C2585   1.410       .  A
C2584      H2589   1.083       .  S
C2585      C2586   1.416       .  A
C2586      N2587   1.432       .  S
N2587      H2591   1.046       .  S
N2587      H2592   1.046       .  S
N2590      H2593   1.045       .  S
N2590      H2594   1.045       .  S
C2595      C2596   1.398       .  A
C2595      C2600   1.395       .  A
C2595      H2602   1.084       .  S
C2596      C2597   1.405       .  A
C2597      C2598   1.394       .  A
C2597      N2604   1.438       .  S
C2598      C2599   1.399       .  A
C2598      H2603   1.083       .  S
C2599      C2600   1.408       .  A
C2600      N2601   1.438       .  S
N2601      H2605   1.046       .  S
N2601      H2606   1.046       .  S
N2604      H2607   1.045       .  S
N2604      H2608   1.046       .  S
C2609      C2610   1.404       .  A
C2609      C2614   1.407       .  A
C2609      H2616   1.084       .  S
C2610      C2611   1.415       .  A
C2611      C2612   1.407       .  A
C2611      N2618   1.432       .  S
C2612      C2613   1.405       .  A
C2612      H2617   1.083       .  S
C2613      C2614   1.408       .  A
C2614      N2615   1.431       .  S
N2615      H2619   1.046       .  S
N2615      H2620   1.046       .  S
N2618      H2621   1.045       .  S
N2618      H2622   1.044       .  S
C2623      C2624   1.411       .  A
C2623      C2628   1.426       .  A
C2623      H2630   1.083       .  S
C2624      C2625   1.419       .  A
C2625      C2626   1.417       .  A
C2625      N2632   1.440       .  S
C2626      C2627   1.417       .  A
C2626      H2631   1.073       .  S
C2627      C2628   1.432       .  A
C2628      N2629   1.431       .  S
N2629      H2633   1.042       .  S
N2629      H2634   1.045       .  S
N2632      H2635   1.043       .  S
N2632      H2636   1.045       .  S
C2637      C2638   1.402       .  A
C2637      C2642   1.391       .  A
C2637      H2644   1.082       .  S
C2638      C2639   1.413       .  A
C2639      C2640   1.405       .  A
C2639      N2646   1.436       .  S
C2640      C2641   1.398       .  A
C2640      H2645   1.084       .  S
C2641      C2642   1.406       .  A
C2642      N2643   1.432       .  S
N2643      H2647   1.043       .  S
N2643      H2648   1.046       .  S
N2646      H2649   1.046       .  S
N2646      H2650   1.046       .  S
C2651      C2652   1.400       .  A
C2651      C2656   1.391       .  A
C2651      H2658   1.078       .  S
C2652      C2653   1.414       .  A
C2653      C2654   1.399       .  A
C2653      N2660   1.437       .  S
C2654      C2655   1.399       .  A
C2654      H2659   1.083       .  S
C2655      C2656   1.403       .  A
C2656      N2657   1.439       .  S
N2657      H2661   1.046       .  S
N2657      H2662   1.045       .  S
N2660      H2663   1.044       .  S
N2660      H2664   1.046       .  S
C2665      C2666   1.396       .  A
C2665      C2670   1.389       .  A
C2665      H2672   1.084       .  S
C2666      C2667   1.417       .  A
C2667      C2668   1.382       .  A
C2667      N2674   1.439       .  S
C2668      C2669   1.391       .  A
C2668      H2673   1.085       .  S
C2669      C2670   1.410       .  A
C2670      N2671   1.432       .  S
N2671      H2675   1.045       .  S
N2671      H2676   1.044       .  S
N2674      H2677   1.042       .  S
N2674      H2678   1.045       .  S
C2679      C2680   1.402       .  A
C2679      C2684   1.405       .  A
C2679      H2686   1.074       .  S
C2680      C2681   1.408       .  A
C2681      C2682   1.413       .  A
C2681      N2688   1.437       .  S
C2682      C2683   1.416       .  A
C2682      H2687   1.080       .  S
C2683      C2684   1.415       .  A
C2684      N2685   1.431       .  S
N2685      H2689   1.046       .  S
N2685      H2690   1.046       .  S
N2688      H2691   1.045       .  S
N2688      H2692   1.046       .  S
C2693      C2694   1.408       .  A
C2693      C2698   1.416       .  A
C2693      H2700   1.083       .  S
C2694      C2695   1.417       .  A
C2695      C2696   1.416       .  A
C2695      N2702   1.428       .  S
C2696      C2697   1.403       .  A
C2696      H2701   1.083       .  S
C2697      C2698   1.422       .  A
C2698      N2699   1.438       .  S
N2699      H2703   1.046       .  S
N2699      H2704   1.044       .  S
N2702      H2705   1.045       .  S
N2702      H2706   1.046       .  S
C2707      C2708   1.397       .  A
C2707      C2712   1.380       .  A
C2707      H2714   1.085       .  S
C2708      C2709   1.411       .  A
C2709      C2710   1.391       .  A
C2709      N2716   1.438       .  S
C2710      C2711   1.394       .  A
C2710      H2715   1.085       .  S
C2711      C2712   1.401       .  A
C2712      N2713   1.431       .  S
N2713      H2717   1.044       .  S
N2713      H2718   1.046       .  S
N2716      H2719   1.046       .  S
N2716      H2720   1.046       .  S
C2721      C2722   1.405       .  A
C2721      C2726   1.412       .  A
C2721      H2728   1.083       .  S
C2722      C2723   1.414       .  A
C2723      C2724   1.402       .  A
C2723      N2730   1.437       .  S
C2724      C2725   1.409       .  A
C2724      H2729   1.084       .  S
C2725      C2726   1.422       .  A
C2726      N2727   1.431       .  S
N2727      H2731   1.044       .  S
N2727      H2732   1.045       .  S
N2730      H2733   1.042       .  S
N2730      H2734   1.045       .  S
C2735      C2736   1.401       .  A
C2735      C2740   1.390       .  A
C2735      H2742   1.080       .  S
C2736      C2737   1.410       .  A
C2737      C2738   1.391       .  A
C2737      N2744   1.439       .  S
C2738      C2739   1.400       .  A
C2738      H2743   1.085       .  S
C2739      C2740   1.406       .  A
C2740      N2741   1.439       .  S
N2741      H2745   1.046       .  S
N2741      H2746   1.043       .  S
N2744      H2747   1.043       .  S
N2744      H2748   1.046       .  S
C2749      C2750   1.402       .  A
C2749      C2754   1.402       .  A
C2749      H2756   1.084       .  S
C2750      C2751   1.413       .  A
C2751      C2752   1.400       .  A
C2751      N2758   1.438       .  S
C2752      C2753   1.410       .  A
C2752      H2757   1.082       .  S
C2753      C2754   1.418       .  A
C2754      N2755   1.431       .  S
N2755      H2759   1.042       .  S
N2755      H2760   1.045       .  S
N2758      H2761   1.041       .  S
N2758      H2762   1.046       .  S
C2763      C2764   1.417       .  A
C2763      C2768   1.412       .  A
C2763      H2770   1.075       .  S
C2764      C2765   1.435       .  A
C2765      C2766   1.417       .  A
C2765      N2772   1.438       .  S
C2766      C2767   1.404       .  A
C2766      H2771   1.084       .  S
C2767      C2768   1.417       .  A
C2768      N2769   1.440       .  S
N2769      H2773   1.045       .  S
N2769      H2774   1.042       .  S
N2772      H2775   1.038   1_545  S
N2772      H2776   1.046       .  S
C2777      C2778   1.404       .  A
C2777      C2782   1.392       .  A
C2777      H2784   1.084       .  S
C2778      C2779   1.417       .  A
C2779      C2780   1.405       .  A
C2779      N2786   1.437       .  S
C2780      C2781   1.399       .  A
C2780      H2785   1.084       .  S
C2781      C2782   1.404       .  A
C2782      N2783   1.430       .  S
N2783      H2787   1.046       .  S
N2783      H2788   1.046       .  S
N2786      H2789   1.046       .  S
N2786      H2790   1.046       .  S
C2791      C2792   1.401       .  A
C2791      C2796   1.393       .  A
C2791      H2798   1.084       .  S
C2792      C2793   1.412       .  A
C2793      C2794   1.383       .  A
C2793      N2800   1.439       .  S
C2794      C2795   1.394       .  A
C2794      H2799   1.085       .  S
C2795      C2796   1.408       .  A
C2796      N2797   1.433       .  S
N2797      H2801   1.045       .  S
N2797      H2802   1.046       .  S
N2800      H2803   1.042       .  S
N2800      H2804   1.045       .  S
C2805      C2806   1.400       .  A
C2805      C2810   1.394       .  A
C2805      H2812   1.085       .  S
C2806      C2807   1.404       .  A
C2807      C2808   1.397       .  A
C2807      N2814   1.430       .  S
C2808      C2809   1.408       .  A
C2808      H2813   1.083       .  S
C2809      C2810   1.406       .  A
C2810      N2811   1.429       .  S
N2811      H2815   1.046       .  S
N2811      H2816   1.045       .  S
N2814      H2817   1.044       .  S
N2814      H2818   1.046       .  S
C2819      C2820   1.397       .  A
C2819      C2824   1.411       .  A
C2819      H2826   1.084       .  S
C2820      C2821   1.421       .  A
C2821      C2822   1.417       .  A
C2821      N2828   1.437       .  S
C2822      C2823   1.413       .  A
C2822      H2827   1.080       .  S
C2823      C2824   1.441       .  A
C2824      N2825   1.440       .  S
N2825      H2829   1.045       .  S
N2825      H2830   1.038       .  S
N2828      H2831   1.042       .  S
N2828      H2832   1.045       .  S
C2833      C2834   1.414       .  A
C2833      C2838   1.427       .  A
C2833      H2840   1.083       .  S
C2834      C2835   1.415       .  A
C2835      C2836   1.421       .  A
C2835      N2842   1.430       .  S
C2836      C2837   1.407       .  A
C2836      H2841   1.083       .  S
C2837      C2838   1.414       .  A
C2838      N2839   1.436       .  S
N2839      H2843   1.045       .  S
N2839      H2844   1.045       .  S
N2842      H2845   1.046       .  S
N2842      H2846   1.045       .  S
C2847      C2848   1.396       .  A
C2847      C2852   1.381       .  A
C2847      H2854   1.085       .  S
C2848      C2849   1.400       .  A
C2849      C2850   1.385       .  A
C2849      N2856   1.439       .  S
C2850      C2851   1.398       .  A
C2850      H2855   1.084       .  S
C2851      C2852   1.405       .  A
C2852      N2853   1.433       .  S
N2853      H2857   1.044       .  S
N2853      H2858   1.043       .  S
N2856      H2859   1.045       .  S
N2856      H2860   1.046       .  S
C2861      C2862   1.403       .  A
C2861      C2866   1.407       .  A
C2861      H2868   1.084       .  S
C2862      C2863   1.411       .  A
C2863      C2864   1.387       .  A
C2863      N2870   1.428       .  S
C2864      C2865   1.398       .  A
C2864      H2869   1.083       .  S
C2865      C2866   1.420       .  A
C2866      N2867   1.436       .  S
N2867      H2871   1.045       .  S
N2867      H2872   1.041       .  S
N2870      H2873   1.044       .  S
N2870      H2874   1.042       .  S
C2875      C2876   1.400       .  A
C2875      C2880   1.400       .  A
C2875      H2882   1.084       .  S
C2876      C2877   1.413       .  A
C2877      C2878   1.405       .  A
C2877      N2884   1.438       .  S
C2878      C2879   1.411       .  A
C2878      H2883   1.082       .  S
C2879      C2880   1.416       .  A
C2880      N2881   1.433       .  S
N2881      H2885   1.045       .  S
N2881      H2886   1.046       .  S
N2884      H2887   1.043       .  S
N2884      H2888   1.045       .  S
C2889      C2890   1.406       .  A
C2889      C2894   1.399       .  A
C2889      H2896   1.083       .  S
C2890      C2891   1.409       .  A
C2891      C2892   1.400       .  A
C2891      N2898   1.437       .  S
C2892      C2893   1.403       .  A
C2892      H2897   1.080       .  S
C2893      C2894   1.408       .  A
C2894      N2895   1.431       .  S
N2895      H2899   1.043       .  S
N2895      H2900   1.046       .  S
N2898      H2901   1.046       .  S
N2898      H2902   1.046       .  S
C2903      C2904   1.403       .  A
C2903      C2908   1.408       .  A
C2903      H2910   1.083   1_556  S
C2904      C2905   1.413       .  A
C2905      C2906   1.403       .  A
C2905      N2912   1.437       .  S
C2906      C2907   1.403       .  A
C2906      H2911   1.080       .  S
C2907      C2908   1.409       .  A
C2908      N2909   1.436   1_556  S
N2909      H2913   1.046       .  S
N2909      H2914   1.045   1_554  S
N2912      H2915   1.044       .  S
N2912      H2916   1.045       .  S
C2917      C2918   1.401       .  A
C2917      C2922   1.387   1_655  A
C2917      H2924   1.081       .  S
C2918      C2919   1.413       .  A
C2919      C2920   1.399       .  A
C2919      N2926   1.437       .  S
C2920      C2921   1.396   1_655  A
C2920      H2925   1.084       .  S
C2921      C2922   1.409       .  A
C2922      N2923   1.432       .  S
N2923      H2927   1.045       .  S
N2923      H2928   1.044       .  S
N2926      H2929   1.045       .  S
N2926      H2930   1.046       .  S
C2931      C2932   1.420       .  A
C2931      C2936   1.418       .  A
C2931      H2938   1.077       .  S
C2932      C2933   1.435       .  A
C2933      C2934   1.420       .  A
C2933      N2940   1.432       .  S
C2934      C2935   1.406       .  A
C2934      H2939   1.084       .  S
C2935      C2936   1.416       .  A
C2936      N2937   1.438       .  S
N2937      H2941   1.046       .  S
N2937      H2942   1.044       .  S
N2940      H2943   1.043       .  S
N2940      H2944   1.039       .  S
C2945      C2946   1.406       .  A
C2945      C2950   1.414       .  A
C2945      H2952   1.083       .  S
C2946      C2947   1.421       .  A
C2947      C2948   1.417       .  A
C2947      N2954   1.438       .  S
C2948      C2949   1.409       .  A
C2948      H2953   1.083       .  S
C2949      C2950   1.423       .  A
C2950      N2951   1.433       .  S
N2951      H2955   1.045       .  S
N2951      H2956   1.039       .  S
N2954      H2957   1.043       .  S
N2954      H2958   1.046       .  S
C2959      C2960   1.408       .  A
C2959      C2964   1.400       .  A
C2959      H2966   1.084       .  S
C2960      C2961   1.421       .  A
C2961      C2962   1.413   1_655  A
C2961      N2968   1.437       .  S
C2962      C2963   1.406       .  A
C2962      H2967   1.084       .  S
C2963      C2964   1.415   1_455  A
C2964      N2965   1.439   1_655  S
N2965      H2969   1.045       .  S
N2965      H2970   1.044       .  S
N2968      H2971   1.042       .  S
N2968      H2972   1.045       .  S
C2973      C2974   1.428       .  A
C2973      C2978   1.419       .  A
C2973      H2980   1.074       .  S
C2974      C2975   1.435       .  A
C2975      C2976   1.434       .  A
C2975      N2982   1.438       .  S
C2976      C2977   1.426       .  A
C2976      H2981   1.073       .  S
C2977      C2978   1.407       .  A
C2978      N2979   1.438       .  S
N2979      H2983   1.046       .  S
N2979      H2984   1.046       .  S
N2982      H2985   1.040       .  S
N2982      H2986   1.045       .  S
C2987      C2988   1.423       .  A
C2987      C2992   1.440       .  A
C2987      H2994   1.081       .  S
C2988      C2989   1.435       .  A
C2989      C2990   1.436       .  A
C2989      N2996   1.435       .  S
C2990      C2991   1.411       .  A
C2990      H2995   1.083       .  S
C2991      C2992   1.422       .  A
C2992      N2993   1.435       .  S
N2993      H2997   1.045       .  S
N2993      H2998   1.043       .  S
N2996      H2999   1.046       .  S
N2996      H3000   1.045       .  S
C3001      C3002   1.397       .  A
C3001      C3006   1.382       .  A
C3001      H3008   1.083       .  S
C3002      C3003   1.405       .  A
C3003      C3004   1.396       .  A
C3003      N3010   1.437       .  S
C3004      C3005   1.407       .  A
C3004      H3009   1.083       .  S
C3005      C3006   1.404       .  A
C3006      N3007   1.432       .  S
N3007      H3011   1.046       .  S
N3007      H3012   1.046       .  S
N3010      H3013   1.044       .  S
N3010      H3014   1.046       .  S
C3015      C3016   1.426       .  A
C3015      C3020   1.460       .  A
C3015      H3022   1.083       .  S
C3016      C3017   1.442       .  A
C3017      C3018   1.454       .  A
C3017      N3024   1.437       .  S
C3018      C3019   1.429       .  A
C3018      H3023   1.082       .  S
C3019      C3020   1.442       .  A
C3020      N3021   1.435       .  S
N3021      H3025   1.045       .  S
N3021      H3026   1.043       .  S
N3024      H3027   1.044       .  S
N3024      H3028   1.045       .  S
C3029      C3030   1.398       .  A
C3029      C3034   1.394       .  A
C3029      H3036   1.083       .  S
C3030      C3031   1.402       .  A
C3031      C3032   1.388       .  A
C3031      N3038   1.438       .  S
C3032      C3033   1.409       .  A
C3032      H3037   1.084       .  S
C3033      C3034   1.412       .  A
C3034      N3035   1.438       .  S
N3035      H3039   1.046       .  S
N3035      H3040   1.045       .  S
N3038      H3041   1.043       .  S
N3038      H3042   1.046       .  S
C3043      C3044   1.402       .  A
C3043      C3048   1.408       .  A
C3043      H3050   1.083       .  S
C3044      C3045   1.407       .  A
C3045      C3046   1.400       .  A
C3045      N3052   1.438       .  S
C3046      C3047   1.407       .  A
C3046      H3051   1.083       .  S
C3047      C3048   1.416       .  A
C3048      N3049   1.438       .  S
N3049      H3053   1.046       .  S
N3049      H3054   1.046       .  S
N3052      H3055   1.045       .  S
N3052      H3056   1.046       .  S
C3057      C3058   1.426       .  A
C3057      C3062   1.454       .  A
C3057      H3064   1.083       .  S
C3058      C3059   1.430       .  A
C3059      C3060   1.443       .  A
C3059      N3066   1.437       .  S
C3060      C3061   1.435       .  A
C3060      H3065   1.079       .  S
C3061      C3062   1.432       .  A
C3062      N3063   1.428       .  S
N3063      H3067   1.046       .  S
N3063      H3068   1.045       .  S
N3066      H3069   1.041       .  S
N3066      H3070   1.046       .  S
C3071      C3072   1.414       .  A
C3071      C3076   1.437       .  A
C3071      H3078   1.083       .  S
C3072      C3073   1.434       .  A
C3073      C3074   1.438       .  A
C3073      N3080   1.438       .  S
C3074      C3075   1.420       .  A
C3074      H3079   1.071       .  S
C3075      C3076   1.443       .  A
C3076      N3077   1.432       .  S
N3077      H3081   1.043       .  S
N3077      H3082   1.043       .  S
N3080      H3083   1.042       .  S
N3080      H3084   1.045       .  S
C3085      C3086   1.393       .  A
C3085      C3090   1.387       .  A
C3085      H3092   1.085       .  S
C3086      C3087   1.411       .  A
C3087      C3088   1.387       .  A
C3087      N3094   1.439       .  S
C3088      C3089   1.396       .  A
C3088      H3093   1.084       .  S
C3089      C3090   1.405       .  A
C3090      N3091   1.438       .  S
N3091      H3095   1.046       .  S
N3091      H3096   1.045       .  S
N3094      H3097   1.042       .  S
N3094      H3098   1.046       .  S
C3099      C3100   1.405       .  A
C3099      C3104   1.411       .  A
C3099      H3106   1.080       .  S
C3100      C3101   1.418       .  A
C3101      C3102   1.415       .  A
C3101      N3108   1.435       .  S
C3102      C3103   1.402       .  A
C3102      H3107   1.083       .  S
C3103      C3104   1.415       .  A
C3104      N3105   1.438       .  S
N3105      H3109   1.046       .  S
N3105      H3110   1.045       .  S
N3108      H3111   1.044       .  S
N3108      H3112   1.045       .  S
C3113      C3114   1.392       .  A
C3113      C3118   1.395       .  A
C3113      H3120   1.084       .  S
C3114      C3115   1.404       .  A
C3115      C3116   1.391       .  A
C3115      N3122   1.431       .  S
C3116      C3117   1.403       .  A
C3116      H3121   1.084       .  S
C3117      C3118   1.420       .  A
C3118      N3119   1.438       .  S
N3119      H3123   1.046       .  S
N3119      H3124   1.045       .  S
N3122      H3125   1.043       .  S
N3122      H3126   1.045       .  S
C3127      C3128   1.402       .  A
C3127      C3132   1.408       .  A
C3127      H3134   1.084       .  S
C3128      C3129   1.407       .  A
C3129      C3130   1.407       .  A
C3129      N3136   1.439       .  S
C3130      C3131   1.413       .  A
C3130      H3135   1.080       .  S
C3131      C3132   1.415       .  A
C3132      N3133   1.431       .  S
N3133      H3137   1.046       .  S
N3133      H3138   1.046       .  S
N3136      H3139   1.045       .  S
N3136      H3140   1.045       .  S
C3141      C3142   1.406       .  A
C3141      C3146   1.421       .  A
C3141      H3148   1.084       .  S
C3142      C3143   1.414       .  A
C3143      C3144   1.412       .  A
C3143      N3150   1.439       .  S
C3144      C3145   1.419       .  A
C3144      H3149   1.076       .  S
C3145      C3146   1.438       .  A
C3146      N3147   1.439       .  S
N3147      H3151   1.045       .  S
N3147      H3152   1.039       .  S
N3150      H3153   1.043       .  S
N3150      H3154   1.045       .  S
C3155      C3156   1.398       .  A
C3155      C3160   1.402       .  A
C3155      H3162   1.082       .  S
C3156      C3157   1.412       .  A
C3157      C3158   1.395       .  A
C3157      N3164   1.440       .  S
C3158      C3159   1.404       .  A
C3158      H3163   1.084       .  S
C3159      C3160   1.414       .  A
C3160      N3161   1.438       .  S
N3161      H3165   1.046       .  S
N3161      H3166   1.045       .  S
N3164      H3167   1.043       .  S
N3164      H3168   1.046       .  S
C3169      C3170   1.398       .  A
C3169      C3174   1.391       .  A
C3169      H3176   1.082       .  S
C3170      C3171   1.412       .  A
C3171      C3172   1.383       .  A
C3171      N3178   1.439       .  S
C3172      C3173   1.397       .  A
C3172      H3177   1.085       .  S
C3173      C3174   1.412       .  A
C3174      N3175   1.439       .  S
N3175      H3179   1.046       .  S
N3175      H3180   1.045       .  S
N3178      H3181   1.043       .  S
N3178      H3182   1.045       .  S
C3183      C3184   1.402       .  A
C3183      C3188   1.390       .  A
C3183      H3190   1.083       .  S
C3184      C3185   1.411       .  A
C3185      C3186   1.393       .  A
C3185      N3192   1.436       .  S
C3186      C3187   1.401       .  A
C3186      H3191   1.085       .  S
C3187      C3188   1.409       .  A
C3188      N3189   1.439       .  S
N3189      H3193   1.046       .  S
N3189      H3194   1.044       .  S
N3192      H3195   1.043       .  S
N3192      H3196   1.045       .  S
C3197      C3198   1.399       .  A
C3197      C3202   1.400       .  A
C3197      H3204   1.084       .  S
C3198      C3199   1.416       .  A
C3199      C3200   1.411       .  A
C3199      N3206   1.436       .  S
C3200      C3201   1.399       .  A
C3200      H3205   1.083       .  S
C3201      C3202   1.411       .  A
C3202      N3203   1.426       .  S
N3203      H3207   1.044       .  S
N3203      H3208   1.045       .  S
N3206      H3209   1.045       .  S
N3206      H3210   1.046       .  S
C3211      C3212   1.400       .  A
C3211      C3216   1.391       .  A
C3211      H3218   1.084       .  S
C3212      C3213   1.415       .  A
C3213      C3214   1.401       .  A
C3213      N3220   1.438       .  S
C3214      C3215   1.400       .  A
C3214      H3219   1.083       .  S
C3215      C3216   1.401       .  A
C3216      N3217   1.432       .  S
N3217      H3221   1.046       .  S
N3217      H3222   1.046       .  S
N3220      H3223   1.043       .  S
N3220      H3224   1.045       .  S
C3225      C3226   1.398       .  A
C3225      C3230   1.383       .  A
C3225      H3232   1.084       .  S
C3226      C3227   1.407       .  A
C3227      C3228   1.381       .  A
C3227      N3234   1.441       .  S
C3228      C3229   1.398       .  A
C3228      H3233   1.084       .  S
C3229      C3230   1.405       .  A
C3230      N3231   1.439       .  S
N3231      H3235   1.046       .  S
N3231      H3236   1.043       .  S
N3234      H3237   1.043       .  S
N3234      H3238   1.046       .  S
C3239      C3240   1.398       .  A
C3239      C3244   1.391       .  A
C3239      H3246   1.084       .  S
C3240      C3241   1.411       .  A
C3241      C3242   1.399       .  A
C3241      N3248   1.436       .  S
C3242      C3243   1.400       .  A
C3242      H3247   1.084       .  S
C3243      C3244   1.404       .  A
C3244      N3245   1.439       .  S
N3245      H3249   1.046       .  S
N3245      H3250   1.046       .  S
N3248      H3251   1.044       .  S
N3248      H3252   1.045       .  S
C3253      C3254   1.403       .  A
C3253      C3258   1.413       .  A
C3253      H3260   1.083       .  S
C3254      C3255   1.412       .  A
C3255      C3256   1.407       .  A
C3255      N3262   1.438       .  S
C3256      C3257   1.405       .  A
C3256      H3261   1.084       .  S
C3257      C3258   1.416       .  A
C3258      N3259   1.437       .  S
N3259      H3263   1.046       .  S
N3259      H3264   1.046       .  S
N3262      H3265   1.042       .  S
N3262      H3266   1.046       .  S
C3267      C3268   1.398       .  A
C3267      C3272   1.388       .  A
C3267      H3274   1.071       .  S
C3268      C3269   1.423       .  A
C3269      C3270   1.402       .  A
C3269      N3276   1.434       .  S
C3270      C3271   1.404       .  A
C3270      H3275   1.083       .  S
C3271      C3272   1.415       .  A
C3272      N3273   1.440       .  S
N3273      H3277   1.046       .  S
N3273      H3278   1.044       .  S
N3276      H3279   1.043       .  S
N3276      H3280   1.045       .  S
C3281      C3282   1.402       .  A
C3281      C3286   1.401       .  A
C3281      H3288   1.082       .  S
C3282      C3283   1.419       .  A
C3283      C3284   1.402       .  A
C3283      N3290   1.436       .  S
C3284      C3285   1.399       .  A
C3284      H3289   1.084       .  S
C3285      C3286   1.417       .  A
C3286      N3287   1.439       .  S
N3287      H3291   1.046       .  S
N3287      H3292   1.042       .  S
N3290      H3293   1.042       .  S
N3290      H3294   1.045       .  S
C3295      C3296   1.406       .  A
C3295      C3300   1.396       .  A
C3295      H3302   1.084       .  S
C3296      C3297   1.411       .  A
C3297      C3298   1.395       .  A
C3297      N3304   1.433       .  S
C3298      C3299   1.402       .  A
C3298      H3303   1.083       .  S
C3299      C3300   1.409       .  A
C3300      N3301   1.439       .  S
N3301      H3305   1.046       .  S
N3301      H3306   1.043       .  S
N3304      H3307   1.044       .  S
N3304      H3308   1.042       .  S
C3309      C3310   1.406       .  A
C3309      C3314   1.410       .  A
C3309      H3316   1.083       .  S
C3310      C3311   1.412       .  A
C3311      C3312   1.410       .  A
C3311      N3318   1.437       .  S
C3312      C3313   1.406       .  A
C3312      H3317   1.081       .  S
C3313      C3314   1.418       .  A
C3314      N3315   1.438       .  S
N3315      H3319   1.046       .  S
N3315      H3320   1.043       .  S
N3318      H3321   1.046       .  S
N3318      H3322   1.046       .  S
C3323      C3324   1.404       .  A
C3323      C3328   1.416       .  A
C3323      H3330   1.070       .  S
C3324      C3325   1.435       .  A
C3325      C3326   1.413       .  A
C3325      N3332   1.435       .  S
C3326      C3327   1.401       .  A
C3326      H3331   1.082       .  S
C3327      C3328   1.421       .  A
C3328      N3329   1.432       .  S
N3329      H3333   1.046       .  S
N3329      H3334   1.045       .  S
N3332      H3335   1.043       .  S
N3332      H3336   1.044       .  S
C3337      C3338   1.403       .  A
C3337      C3342   1.418       .  A
C3337      H3344   1.084       .  S
C3338      C3339   1.423       .  A
C3339      C3340   1.421       .  A
C3339      N3346   1.437       .  S
C3340      C3341   1.414       .  A
C3340      H3345   1.077       .  S
C3341      C3342   1.429       .  A
C3342      N3343   1.433   1_556  S
N3343      H3347   1.045       .  S
N3343      H3348   1.046       .  S
N3346      H3349   1.043       .  S
N3346      H3350   1.046       .  S
C3351      C3352   1.412       .  A
C3351      C3356   1.427       .  A
C3351      H3358   1.083       .  S
C3352      C3353   1.427       .  A
C3353      C3354   1.415       .  A
C3353      N3360   1.431       .  S
C3354      C3355   1.405       .  A
C3354      H3359   1.083       .  S
C3355      C3356   1.419       .  A
C3356      N3357   1.434       .  S
N3357      H3361   1.045       .  S
N3357      H3362   1.042       .  S
N3360      H3363   1.046       .  S
N3360      H3364   1.042       .  S
C3365      C3366   1.412       .  A
C3365      C3370   1.394       .  A
C3365      H3372   1.082       .  S
C3366      C3367   1.409       .  A
C3367      C3368   1.404       .  A
C3367      N3374   1.431       .  S
C3368      C3369   1.401       .  A
C3368      H3373   1.083       .  S
C3369      C3370   1.399       .  A
C3370      N3371   1.433       .  S
N3371      H3375   1.046       .  S
N3371      H3376   1.046       .  S
N3374      H3377   1.045       .  S
N3374      H3378   1.046       .  S
C3379      C3380   1.411       .  A
C3379      C3384   1.431       .  A
C3379      H3386   1.083       .  S
C3380      C3381   1.414       .  A
C3381      C3382   1.428       .  A
C3381      N3388   1.431       .  S
C3382      C3383   1.424       .  A
C3382      H3387   1.081       .  S
C3383      C3384   1.432       .  A
C3384      N3385   1.435       .  S
N3385      H3389   1.045       .  S
N3385      H3390   1.045       .  S
N3388      H3391   1.045       .  S
N3388      H3392   1.044       .  S
C3393      C3394   1.411   1_556  A
C3393      C3398   1.406   1_556  A
C3393      H3400   1.081       .  S
C3394      C3395   1.419       .  A
C3395      C3396   1.412       .  A
C3395      N3402   1.436       .  S
C3396      C3397   1.403       .  A
C3396      H3401   1.083       .  S
C3397      C3398   1.417       .  A
C3398      N3399   1.438       .  S
N3399      H3403   1.045       .  S
N3399      H3404   1.042       .  S
N3402      H3405   1.045   1_554  S
N3402      H3406   1.046       .  S
C3407      C3408   1.421       .  A
C3407      C3412   1.429       .  A
C3407      H3414   1.079       .  S
C3408      C3409   1.441       .  A
C3409      C3410   1.431       .  A
C3409      N3416   1.432       .  S
C3410      C3411   1.412       .  A
C3410      H3415   1.084       .  S
C3411      C3412   1.425       .  A
C3412      N3413   1.438       .  S
N3413      H3417   1.046       .  S
N3413      H3418   1.043       .  S
N3416      H3419   1.043   1_554  S
N3416      H3420   1.040       .  S
C3421      C3422   1.395       .  A
C3421      C3426   1.387       .  A
C3421      H3428   1.084       .  S
C3422      C3423   1.397       .  A
C3423      C3424   1.388       .  A
C3423      N3430   1.431       .  S
C3424      C3425   1.406       .  A
C3424      H3429   1.084       .  S
C3425      C3426   1.410       .  A
C3426      N3427   1.428       .  S
N3427      H3431   1.046       .  S
N3427      H3432   1.046       .  S
N3430      H3433   1.046       .  S
N3430      H3434   1.045       .  S
C3435      C3436   1.403       .  A
C3435      C3440   1.408       .  A
C3435      H3442   1.084       .  S
C3436      C3437   1.412       .  A
C3437      C3438   1.390       .  A
C3437      N3444   1.440       .  S
C3438      C3439   1.404       .  A
C3438      H3443   1.084       .  S
C3439      C3440   1.414       .  A
C3440      N3441   1.437       .  S
N3441      H3445   1.045       .  S
N3441      H3446   1.046       .  S
N3444      H3447   1.043       .  S
N3444      H3448   1.046       .  S
C3449      C3450   1.403       .  A
C3449      C3454   1.403       .  A
C3449      H3456   1.083       .  S
C3450      C3451   1.403       .  A
C3451      C3452   1.394       .  A
C3451      N3458   1.431       .  S
C3452      C3453   1.400       .  A
C3452      H3457   1.084       .  S
C3453      C3454   1.411       .  A
C3454      N3455   1.438       .  S
N3455      H3459   1.046       .  S
N3455      H3460   1.045       .  S
N3458      H3461   1.045       .  S
N3458      H3462   1.046       .  S
C3463      C3464   1.412       .  A
C3463      C3468   1.434       .  A
C3463      H3470   1.083       .  S
C3464      C3465   1.407       .  A
C3465      C3466   1.422       .  A
C3465      N3472   1.431       .  S
C3466      C3467   1.426       .  A
C3466      H3471   1.077       .  S
C3467      C3468   1.441       .  A
C3468      N3469   1.438       .  S
N3469      H3473   1.046       .  S
N3469      H3474   1.040   1_556  S
N3472      H3475   1.045       .  S
N3472      H3476   1.046       .  S
C3477      C3478   1.410       .  A
C3477      C3482   1.418       .  A
C3477      H3484   1.083       .  S
C3478      C3479   1.425       .  A
C3479      C3480   1.424       .  A
C3479      N3486   1.437       .  S
C3480      C3481   1.412       .  A
C3480      H3485   1.083       .  S
C3481      C3482   1.413       .  A
C3482      N3483   1.430       .  S
N3483      H3487   1.045       .  S
N3483      H3488   1.045       .  S
N3486      H3489   1.042       .  S
N3486      H3490   1.046       .  S
C3491      C3492   1.396       .  A
C3491      C3496   1.390       .  A
C3491      H3498   1.084       .  S
C3492      C3493   1.400       .  A
C3493      C3494   1.395       .  A
C3493      N3500   1.438       .  S
C3494      C3495   1.403       .  A
C3494      H3499   1.084       .  S
C3495      C3496   1.407       .  A
C3496      N3497   1.439       .  S
N3497      H3501   1.046       .  S
N3497      H3502   1.045       .  S
N3500      H3503   1.046       .  S
N3500      H3504   1.046       .  S
C3505      C3506   1.400       .  A
C3505      C3510   1.405       .  A
C3505      H3512   1.082       .  S
C3506      C3507   1.399       .  A
C3507      C3508   1.397       .  A
C3507      N3514   1.437       .  S
C3508      C3509   1.411       .  A
C3508      H3513   1.083       .  S
C3509      C3510   1.416       .  A
C3510      N3511   1.438       .  S
N3511      H3515   1.046       .  S
N3511      H3516   1.046       .  S
N3514      H3517   1.045       .  S
N3514      H3518   1.046       .  S
C3519      C3520   1.407       .  A
C3519      C3524   1.412       .  A
C3519      H3526   1.082       .  S
C3520      C3521   1.416       .  A
C3521      C3522   1.420       .  A
C3521      N3528   1.436       .  S
C3522      C3523   1.408       .  A
C3522      H3527   1.083       .  S
C3523      C3524   1.414       .  A
C3524      N3525   1.436       .  S
N3525      H3529   1.046       .  S
N3525      H3530   1.044       .  S
N3528      H3531   1.045       .  S
N3528      H3532   1.045       .  S
C3533      C3534   1.402       .  A
C3533      C3538   1.415       .  A
C3533      H3540   1.083       .  S
C3534      C3535   1.414       .  A
C3535      C3536   1.421       .  A
C3535      N3542   1.437       .  S
C3536      C3537   1.412       .  A
C3536      H3541   1.082       .  S
C3537      C3538   1.419       .  A
C3538      N3539   1.437       .  S
N3539      H3543   1.046       .  S
N3539      H3544   1.046       .  S
N3542      H3545   1.045       .  S
N3542      H3546   1.045       .  S
C3547      C3548   1.407       .  A
C3547      C3552   1.424       .  A
C3547      H3554   1.083       .  S
C3548      C3549   1.408       .  A
C3549      C3550   1.409       .  A
C3549      N3556   1.438       .  S
C3550      C3551   1.408       .  A
C3550      H3555   1.064       .  S
C3551      C3552   1.426       .  A
C3552      N3553   1.437       .  S
N3553      H3557   1.045       .  S
N3553      H3558   1.044       .  S
N3556      H3559   1.046       .  S
N3556      H3560   1.046       .  S
C3561      C3562   1.400       .  A
C3561      C3566   1.404       .  A
C3561      H3568   1.084       .  S
C3562      C3563   1.408       .  A
C3563      C3564   1.411       .  A
C3563      N3570   1.437       .  S
C3564      C3565   1.410       .  A
C3564      H3569   1.083       .  S
C3565      C3566   1.418       .  A
C3566      N3567   1.438       .  S
N3567      H3571   1.046       .  S
N3567      H3572   1.046       .  S
N3570      H3573   1.045       .  S
N3570      H3574   1.045       .  S
C3575      C3576   1.400       .  A
C3575      C3580   1.398       .  A
C3575      H3582   1.083       .  S
C3576      C3577   1.412       .  A
C3577      C3578   1.410       .  A
C3577      N3584   1.437       .  S
C3578      C3579   1.403       .  A
C3578      H3583   1.080       .  S
C3579      C3580   1.414       .  A
C3580      N3581   1.438       .  S
N3581      H3585   1.046       .  S
N3581      H3586   1.043       .  S
N3584      H3587   1.046       .  S
N3584      H3588   1.046       .  S
C3589      C3590   1.402       .  A
C3589      C3594   1.401       .  A
C3589      H3596   1.083       .  S
C3590      C3591   1.411       .  A
C3591      C3592   1.382       .  A
C3591      N3598   1.436       .  S
C3592      C3593   1.392       .  A
C3592      H3597   1.082       .  S
C3593      C3594   1.413       .  A
C3594      N3595   1.438       .  S
N3595      H3599   1.045       .  S
N3595      H3600   1.044       .  S
N3598      H3601   1.046       .  S
N3598      H3602   1.046       .  S
C3603      C3604   1.427       .  A
C3603      C3608   1.440       .  A
C3603      H3610   1.073       .  S
C3604      C3605   1.439       .  A
C3605      C3606   1.431       .  A
C3605      N3612   1.433       .  S
C3606      C3607   1.418       .  A
C3606      H3611   1.081       .  S
C3607      C3608   1.420       .  A
C3608      N3609   1.435       .  S
N3609      H3613   1.045       .  S
N3609      H3614   1.046       .  S
N3612      H3615   1.041       .  S
N3612      H3616   1.045       .  S
C3617      C3618   1.404       .  A
C3617      C3622   1.407       .  A
C3617      H3624   1.084       .  S
C3618      C3619   1.420       .  A
C3619      C3620   1.410       .  A
C3619      N3626   1.438       .  S
C3620      C3621   1.405       .  A
C3620      H3625   1.083       .  S
C3621      C3622   1.417       .  A
C3622      N3623   1.435       .  S
N3623      H3627   1.045       .  S
N3623      H3628   1.042       .  S
N3626      H3629   1.043       .  S
N3626      H3630   1.046       .  S
C3631      C3632   1.395       .  A
C3631      C3636   1.400       .  A
C3631      H3638   1.084       .  S
C3632      C3633   1.413       .  A
C3633      C3634   1.395       .  A
C3633      N3640   1.439       .  S
C3634      C3635   1.404       .  A
C3634      H3639   1.084       .  S
C3635      C3636   1.420       .  A
C3636      N3637   1.438       .  S
N3637      H3641   1.046       .  S
N3637      H3642   1.046       .  S
N3640      H3643   1.043       .  S
N3640      H3644   1.046       .  S
C3645      C3646   1.418       .  A
C3645      C3650   1.436       .  A
C3645      H3652   1.082       .  S
C3646      C3647   1.429       .  A
C3647      C3648   1.438       .  A
C3647      N3654   1.434       .  S
C3648      C3649   1.419       .  A
C3648      H3653   1.073       .  S
C3649      C3650   1.442       .  A
C3650      N3651   1.433       .  S
N3651      H3655   1.042       .  S
N3651      H3656   1.041       .  S
N3654      H3657   1.045       .  S
N3654      H3658   1.045       .  S
C3659      C3660   1.406       .  A
C3659      C3664   1.427       .  A
C3659      H3666   1.083       .  S
C3660      C3661   1.425       .  A
C3661      C3662   1.429       .  A
C3661      N3668   1.437       .  S
C3662      C3663   1.419       .  A
C3662      H3667   1.082       .  S
C3663      C3664   1.431       .  A
C3664      N3665   1.436       .  S
N3665      H3669   1.045       .  S
N3665      H3670   1.043       .  S
N3668      H3671   1.043       .  S
N3668      H3672   1.044       .  S
C3673      C3674   1.398       .  A
C3673      C3678   1.395       .  A
C3673      H3680   1.084       .  S
C3674      C3675   1.414       .  A
C3675      C3676   1.390       .  A
C3675      N3682   1.438       .  S
C3676      C3677   1.396       .  A
C3676      H3681   1.085       .  S
C3677      C3678   1.414       .  A
C3678      N3679   1.437       .  S
N3679      H3683   1.045       .  S
N3679      H3684   1.043       .  S
N3682      H3685   1.040       .  S
N3682      H3686   1.046       .  S
C3687      C3688   1.403       .  A
C3687      C3692   1.409       .  A
C3687      H3694   1.084       .  S
C3688      C3689   1.410       .  A
C3689      C3690   1.405       .  A
C3689      N3696   1.433       .  S
C3690      C3691   1.404       .  A
C3690      H3695   1.083       .  S
C3691      C3692   1.420       .  A
C3692      N3693   1.436       .  S
N3693      H3697   1.045       .  S
N3693      H3698   1.042       .  S
N3696      H3699   1.046       .  S
N3696      H3700   1.046       .  S
C3701      C3702   1.401       .  A
C3701      C3706   1.400       .  A
C3701      H3708   1.084       .  S
C3702      C3703   1.412       .  A
C3703      C3704   1.388       .  A
C3703      N3710   1.438       .  S
C3704      C3705   1.398       .  A
C3704      H3709   1.085       .  S
C3705      C3706   1.405       .  A
C3706      N3707   1.438       .  S
N3707      H3711   1.046       .  S
N3707      H3712   1.045       .  S
N3710      H3713   1.042       .  S
N3710      H3714   1.045       .  S
C3715      C3716   1.398       .  A
C3715      C3720   1.390       .  A
C3715      H3722   1.084       .  S
C3716      C3717   1.413       .  A
C3717      C3718   1.390       .  A
C3717      N3724   1.438       .  S
C3718      C3719   1.397       .  A
C3718      H3723   1.084       .  S
C3719      C3720   1.410       .  A
C3720      N3721   1.438       .  S
N3721      H3725   1.046       .  S
N3721      H3726   1.043       .  S
N3724      H3727   1.042       .  S
N3724      H3728   1.045       .  S
C3729      C3730   1.400       .  A
C3729      C3734   1.401       .  A
C3729      H3736   1.084       .  S
C3730      C3731   1.401       .  A
C3731      C3732   1.396       .  A
C3731      N3738   1.437       .  S
C3732      C3733   1.408       .  A
C3732      H3737   1.082       .  S
C3733      C3734   1.409       .  A
C3734      N3735   1.437       .  S
N3735      H3739   1.046       .  S
N3735      H3740   1.046       .  S
N3738      H3741   1.044       .  S
N3738      H3742   1.046       .  S
C3743      C3744   1.401       .  A
C3743      C3748   1.402       .  A
C3743      H3750   1.084       .  S
C3744      C3745   1.409       .  A
C3745      C3746   1.399       .  A
C3745      N3752   1.438       .  S
C3746      C3747   1.407       .  A
C3746      H3751   1.084       .  S
C3747      C3748   1.423       .  A
C3748      N3749   1.438       .  S
N3749      H3753   1.046       .  S
N3749      H3754   1.038       .  S
N3752      H3755   1.044       .  S
N3752      H3756   1.046       .  S
C3757      C3758   1.415       .  A
C3757      C3762   1.421       .  A
C3757      H3764   1.083       .  S
C3758      C3759   1.429       .  A
C3759      C3760   1.404       .  A
C3759      N3766   1.427   1_455  S
C3760      C3761   1.399       .  A
C3760      H3765   1.082   1_455  S
C3761      C3762   1.418       .  A
C3762      N3763   1.436       .  S
N3763      H3767   1.046       .  S
N3763      H3768   1.044       .  S
N3766      H3769   1.042       .  S
N3766      H3770   1.045   1_655  S
C3771      C3772   1.424       .  A
C3771      C3776   1.447       .  A
C3771      H3778   1.083       .  S
C3772      C3773   1.448       .  A
C3773      C3774   1.435       .  A
C3773      N3780   1.431       .  S
C3774      C3775   1.412       .  A
C3774      H3779   1.084       .  S
C3775      C3776   1.437       .  A
C3776      N3777   1.437       .  S
N3777      H3781   1.045       .  S
N3777      H3782   1.044       .  S
N3780      H3783   1.040       .  S
N3780      H3784   1.044   1_455  S
C3785      C3786   1.406       .  A
C3785      C3790   1.397       .  A
C3785      H3792   1.080       .  S
C3786      C3787   1.416       .  A
C3787      C3788   1.405       .  A
C3787      N3794   1.431       .  S
C3788      C3789   1.401       .  A
C3788      H3793   1.084       .  S
C3789      C3790   1.410       .  A
C3790      N3791   1.431   1_545  S
N3791      H3795   1.046       .  S
N3791      H3796   1.045   1_565  S
N3794      H3797   1.046       .  S
N3794      H3798   1.046       .  S
C3799      C3800   1.405       .  A
C3799      C3804   1.409       .  A
C3799      H3806   1.083       .  S
C3800      C3801   1.418       .  A
C3801      C3802   1.409       .  A
C3801      N3808   1.431       .  S
C3802      C3803   1.405       .  A
C3802      H3807   1.083       .  S
C3803      C3804   1.409       .  A
C3804      N3805   1.431       .  S
N3805      H3809   1.045       .  S
N3805      H3810   1.045       .  S
N3808      H3811   1.045       .  S
N3808      H3812   1.044       .  S
C3813      C3814   1.408       .  A
C3813      C3818   1.414       .  A
C3813      H3820   1.081       .  S
C3814      C3815   1.424       .  A
C3815      C3816   1.400       .  A
C3815      N3822   1.436       .  S
C3816      C3817   1.404       .  A
C3816      H3821   1.079       .  S
C3817      C3818   1.418       .  A
C3818      N3819   1.437       .  S
N3819      H3823   1.046       .  S
N3819      H3824   1.045       .  S
N3822      H3825   1.044       .  S
N3822      H3826   1.045       .  S
C3827      C3828   1.422       .  A
C3827      C3832   1.436       .  A
C3827      H3834   1.076       .  S
C3828      C3829   1.440       .  A
C3829      C3830   1.433       .  A
C3829      N3836   1.431       .  S
C3830      C3831   1.411       .  A
C3830      H3835   1.083       .  S
C3831      C3832   1.421       .  A
C3832      N3833   1.436       .  S
N3833      H3837   1.045       .  S
N3833      H3838   1.044       .  S
N3836      H3839   1.044       .  S
N3836      H3840   1.042       .  S
C3841      C3842   1.413       .  A
C3841      C3846   1.414       .  A
C3841      H3848   1.081       .  S
C3842      C3843   1.417       .  A
C3843      C3844   1.403       .  A
C3843      N3850   1.431       .  S
C3844      C3845   1.401       .  A
C3844      H3849   1.084       .  S
C3845      C3846   1.410       .  A
C3846      N3847   1.436       .  S
N3847      H3851   1.045       .  S
N3847      H3852   1.042       .  S
N3850      H3853   1.046       .  S
N3850      H3854   1.046       .  S
C3855      C3856   1.418       .  A
C3855      C3860   1.404       .  A
C3855      H3862   1.079       .  S
C3856      C3857   1.431       .  A
C3857      C3858   1.396       .  A
C3857      N3864   1.439       .  S
C3858      C3859   1.396       .  A
C3858      H3863   1.084       .  S
C3859      C3860   1.407       .  A
C3860      N3861   1.439       .  S
N3861      H3865   1.045       .  S
N3861      H3866   1.044       .  S
N3864      H3867   1.038       .  S
N3864      H3868   1.046       .  S
C3869      C3870   1.402       .  A
C3869      C3874   1.392       .  A
C3869      H3876   1.084   1_655  S
C3870      C3871   1.401       .  A
C3871      C3872   1.396       .  A
C3871      N3878   1.431       .  S
C3872      C3873   1.400       .  A
C3872      H3877   1.084       .  S
C3873      C3874   1.408       .  A
C3874      N3875   1.433       .  S
N3875      H3879   1.044   1_545  S
N3875      H3880   1.043       .  S
N3878      H3881   1.046       .  S
N3878      H3882   1.046       .  S
C3883      C3884   1.404       .  A
C3883      C3888   1.404       .  A
C3883      H3890   1.084       .  S
C3884      C3885   1.414       .  A
C3885      C3886   1.402       .  A
C3885      N3892   1.433       .  S
C3886      C3887   1.400       .  A
C3886      H3891   1.083       .  S
C3887      C3888   1.417       .  A
C3888      N3889   1.431       .  S
N3889      H3893   1.040       .  S
N3889      H3894   1.043       .  S
N3892      H3895   1.046       .  S
N3892      H3896   1.046       .  S
C3897      C3898   1.393       .  A
C3897      C3902   1.381       .  A
C3897      H3904   1.080       .  S
C3898      C3899   1.406       .  A
C3899      C3900   1.390       .  A
C3899      N3906   1.432       .  S
C3900      C3901   1.401       .  A
C3900      H3905   1.084       .  S
C3901      C3902   1.403       .  A
C3902      N3903   1.433       .  S
N3903      H3907   1.046       .  S
N3903      H3908   1.046       .  S
N3906      H3909   1.044       .  S
N3906      H3910   1.045       .  S
C3911      C3912   1.411       .  A
C3911      C3916   1.400       .  A
C3911      H3918   1.075   1_655  S
C3912      C3913   1.422       .  A
C3913      C3914   1.410       .  A
C3913      N3920   1.431       .  S
C3914      C3915   1.401       .  A
C3914      H3919   1.084       .  S
C3915      C3916   1.414       .  A
C3916      N3917   1.439       .  S
N3917      H3921   1.045       .  S
N3917      H3922   1.043       .  S
N3920      H3923   1.046       .  S
N3920      H3924   1.046       .  S
C3925      C3926   1.408       .  A
C3925      C3930   1.421       .  A
C3925      H3932   1.083       .  S
C3926      C3927   1.415       .  A
C3927      C3928   1.415       .  A
C3927      N3934   1.431       .  S
C3928      C3929   1.413       .  A
C3928      H3933   1.081       .  S
C3929      C3930   1.418       .  A
C3930      N3931   1.431       .  S
N3931      H3935   1.045       .  S
N3931      H3936   1.046       .  S
N3934      H3937   1.046       .  S
N3934      H3938   1.045       .  S
C3939      C3940   1.402       .  A
C3939      C3944   1.396       .  A
C3939      H3946   1.084       .  S
C3940      C3941   1.404       .  A
C3941      C3942   1.391       .  A
C3941      N3948   1.431       .  S
C3942      C3943   1.398       .  A
C3942      H3947   1.085   1_655  S
C3943      C3944   1.401       .  A
C3944      N3945   1.435       .  S
N3945      H3949   1.046       .  S
N3945      H3950   1.045       .  S
N3948      H3951   1.046       .  S
N3948      H3952   1.044   1_655  S
C3953      C3954   1.403       .  A
C3953      C3958   1.408       .  A
C3953      H3960   1.082       .  S
C3954      C3955   1.408       .  A
C3955      C3956   1.409       .  A
C3955      N3962   1.437       .  S
C3956      C3957   1.406       .  A
C3956      H3961   1.084       .  S
C3957      C3958   1.411       .  A
C3958      N3959   1.438       .  S
N3959      H3963   1.046       .  S
N3959      H3964   1.046       .  S
N3962      H3965   1.041       .  S
N3962      H3966   1.045       .  S
C3967      C3968   1.402       .  A
C3967      C3972   1.399       .  A
C3967      H3974   1.084       .  S
C3968      C3969   1.403       .  A
C3969      C3970   1.390       .  A
C3969      N3976   1.439       .  S
C3970      C3971   1.399       .  A
C3970      H3975   1.085       .  S
C3971      C3972   1.411       .  A
C3972      N3973   1.438       .  S
N3973      H3977   1.046       .  S
N3973      H3978   1.044       .  S
N3976      H3979   1.039       .  S
N3976      H3980   1.046       .  S
C3981      C3982   1.406       .  A
C3981      C3986   1.423       .  A
C3981      H3988   1.083       .  S
C3982      C3983   1.417       .  A
C3983      C3984   1.419       .  A
C3983      N3990   1.438       .  S
C3984      C3985   1.423       .  A
C3984      H3989   1.077       .  S
C3985      C3986   1.425       .  A
C3986      N3987   1.429       .  S
N3987      H3991   1.045   1_655  S
N3987      H3992   1.043       .  S
N3990      H3993   1.043       .  S
N3990      H3994   1.045       .  S
C3995      C3996   1.410       .  A
C3995      C4000   1.434       .  A
C3995      H4002   1.083       .  S
C3996      C3997   1.426       .  A
C3997      C3998   1.430       .  A
C3997      N4004   1.437       .  S
C3998      C3999   1.418       .  A
C3998      H4003   1.079       .  S
C3999      C4000   1.431       .  A
C4000      N4001   1.436       .  S
N4001      H4005   1.045       .  S
N4001      H4006   1.046       .  S
N4004      H4007   1.043       .  S
N4004      H4008   1.045       .  S
C4009      C4010   1.399       .  A
C4009      C4014   1.398       .  A
C4009      H4016   1.083       .  S
C4010      C4011   1.412       .  A
C4011      C4012   1.388       .  A
C4011      N4018   1.439       .  S
C4012      C4013   1.397       .  A
C4012      H4017   1.084   1_655  S
C4013      C4014   1.404       .  A
C4014      N4015   1.436       .  S
N4015      H4019   1.046       .  S
N4015      H4020   1.044       .  S
N4018      H4021   1.043       .  S
N4018      H4022   1.045       .  S
C4023      C4024   1.408       .  A
C4023      C4028   1.413       .  A
C4023      H4030   1.083       .  S
C4024      C4025   1.412       .  A
C4025      C4026   1.410       .  A
C4025      N4032   1.436       .  S
C4026      C4027   1.403       .  A
C4026      H4031   1.083       .  S
C4027      C4028   1.418       .  A
C4028      N4029   1.435       .  S
N4029      H4033   1.045       .  S
N4029      H4034   1.043       .  S
N4032      H4035   1.046       .  S
N4032      H4036   1.046       .  S
C4037      C4038   1.394       .  A
C4037      C4042   1.386       .  A
C4037      H4044   1.082       .  S
C4038      C4039   1.411       .  A
C4039      C4040   1.402       .  A
C4039      N4046   1.437       .  S
C4040      C4041   1.405       .  A
C4040      H4045   1.083       .  S
C4041      C4042   1.411       .  A
C4042      N4043   1.436       .  S
N4043      H4047   1.046       .  S
N4043      H4048   1.045       .  S
N4046      H4049   1.044       .  S
N4046      H4050   1.045       .  S
C4051      C4052   1.425       .  A
C4051      C4056   1.432       .  A
C4051      H4058   1.078       .  S
C4052      C4053   1.441       .  A
C4053      C4054   1.427       .  A
C4053      N4060   1.436       .  S
C4054      C4055   1.412       .  A
C4054      H4059   1.083       .  S
C4055      C4056   1.424       .  A
C4056      N4057   1.438       .  S
N4057      H4061   1.045       .  S
N4057      H4062   1.044       .  S
N4060      H4063   1.038       .  S
N4060      H4064   1.045       .  S
C4065      C4066   1.404       .  A
C4065      C4070   1.400       .  A
C4065      H4072   1.084       .  S
C4066      C4067   1.411       .  A
C4067      C4068   1.414       .  A
C4067      N4074   1.437       .  S
C4068      C4069   1.406       .  A
C4068      H4073   1.083       .  S
C4069      C4070   1.414       .  A
C4070      N4071   1.437       .  S
N4071      H4075   1.045       .  S
N4071      H4076   1.043       .  S
N4074      H4077   1.045       .  S
N4074      H4078   1.046       .  S
C4079      C4080   1.398       .  A
C4079      C4084   1.391       .  A
C4079      H4086   1.085       .  S
C4080      C4081   1.400       .  A
C4081      C4082   1.387       .  A
C4081      N4088   1.433       .  S
C4082      C4083   1.399       .  A
C4082      H4087   1.085       .  S
C4083      C4084   1.409       .  A
C4084      N4085   1.438       .  S
N4085      H4089   1.045       .  S
N4085      H4090   1.044       .  S
N4088      H4091   1.046       .  S
N4088      H4092   1.046       .  S
C4093      C4094   1.416       .  A
C4093      C4098   1.437       .  A
C4093      H4100   1.081       .  S
C4094      C4095   1.425       .  A
C4095      C4096   1.427       .  A
C4095      N4102   1.438       .  S
C4096      C4097   1.421       .  A
C4096      H4101   1.079       .  S
C4097      C4098   1.428       .  A
C4098      N4099   1.431       .  S
N4099      H4103   1.045       .  S
N4099      H4104   1.045       .  S
N4102      H4105   1.043       .  S
N4102      H4106   1.045       .  S
C4107      C4108   1.413       .  A
C4107      C4112   1.422       .  A
C4107      H4114   1.083       .  S
C4108      C4109   1.424       .  A
C4109      C4110   1.419       .  A
C4109      N4116   1.438       .  S
C4110      C4111   1.412       .  A
C4110      H4115   1.083       .  S
C4111      C4112   1.417       .  A
C4112      N4113   1.430       .  S
N4113      H4117   1.045       .  S
N4113      H4118   1.046       .  S
N4116      H4119   1.044       .  S
N4116      H4120   1.045       .  S
C4121      C4122   1.404       .  A
C4121      C4126   1.393       .  A
C4121      H4128   1.084       .  S
C4122      C4123   1.413       .  A
C4123      C4124   1.391       .  A
C4123      N4130   1.432       .  S
C4124      C4125   1.397       .  A
C4124      H4129   1.085       .  S
C4125      C4126   1.410       .  A
C4126      N4127   1.440       .  S
N4127      H4131   1.046       .  S
N4127      H4132   1.043       .  S
N4130      H4133   1.045       .  S
N4130      H4134   1.044       .  S
C4135      C4136   1.404       .  A
C4135      C4140   1.403       .  A
C4135      H4142   1.077       .  S
C4136      C4137   1.407       .  A
C4137      C4138   1.405       .  A
C4137      N4144   1.437       .  S
C4138      C4139   1.401       .  A
C4138      H4143   1.084       .  S
C4139      C4140   1.404       .  A
C4140      N4141   1.437       .  S
N4141      H4145   1.046       .  S
N4141      H4146   1.045       .  S
N4144      H4147   1.043       .  S
N4144      H4148   1.046       .  S
C4149      C4150   1.390       .  A
C4149      C4154   1.387       .  A
C4149      H4156   1.085       .  S
C4150      C4151   1.408       .  A
C4151      C4152   1.396       .  A
C4151      N4158   1.438       .  S
C4152      C4153   1.394       .  A
C4152      H4157   1.083       .  S
C4153      C4154   1.410       .  A
C4154      N4155   1.434       .  S
N4155      H4159   1.045       .  S
N4155      H4160   1.045       .  S
N4158      H4161   1.045       .  S
N4158      H4162   1.046       .  S
C4163      C4164   1.391       .  A
C4163      C4168   1.392       .  A
C4163      H4170   1.084       .  S
C4164      C4165   1.409       .  A
C4165      C4166   1.395       .  A
C4165      N4172   1.432       .  S
C4166      C4167   1.395       .  A
C4166      H4171   1.084       .  S
C4167      C4168   1.411       .  A
C4168      N4169   1.432       .  S
N4169      H4173   1.045       .  S
N4169      H4174   1.045       .  S
N4172      H4175   1.046       .  S
N4172      H4176   1.046       .  S
C4177      C4178   1.401       .  A
C4177      C4182   1.395       .  A
C4177      H4184   1.076       .  S
C4178      C4179   1.410       .  A
C4179      C4180   1.407       .  A
C4179      N4186   1.437       .  S
C4180      C4181   1.401       .  A
C4180      H4185   1.083       .  S
C4181      C4182   1.401       .  A
C4182      N4183   1.432       .  S
N4183      H4187   1.045       .  S
N4183      H4188   1.046       .  S
N4186      H4189   1.045       .  S
N4186      H4190   1.046       .  S
C4191      C4192   1.400       .  A
C4191      C4196   1.393       .  A
C4191      H4198   1.085       .  S
C4192      C4193   1.404       .  A
C4193      C4194   1.387       .  A
C4193      N4200   1.433       .  S
C4194      C4195   1.403       .  A
C4194      H4199   1.081       .  S
C4195      C4196   1.411       .  A
C4196      N4197   1.439       .  S
N4197      H4201   1.046       .  S
N4197      H4202   1.043       .  S
N4200      H4203   1.046       .  S
N4200      H4204   1.045       .  S
C4205      C4206   1.410       .  A
C4205      C4210   1.411       .  A
C4205      H4212   1.083       .  S
C4206      C4207   1.414       .  A
C4207      C4208   1.410       .  A
C4207      N4214   1.431       .  S
C4208      C4209   1.404       .  A
C4208      H4213   1.084       .  S
C4209      C4210   1.415       .  A
C4210      N4211   1.436       .  S
N4211      H4215   1.045       .  S
N4211      H4216   1.043       .  S
N4214      H4217   1.046       .  S
N4214      H4218   1.046   1_565  S
C4219      C4220   1.400       .  A
C4219      C4224   1.404       .  A
C4219      H4226   1.084       .  S
C4220      C4221   1.419       .  A
C4221      C4222   1.414       .  A
C4221      N4228   1.432       .  S
C4222      C4223   1.406       .  A
C4222      H4227   1.083       .  S
C4223      C4224   1.415       .  A
C4224      N4225   1.431       .  S
N4225      H4229   1.046       .  S
N4225      H4230   1.046       .  S
N4228      H4231   1.045       .  S
N4228      H4232   1.045       .  S
C4233      C4234   1.395       .  A
C4233      C4238   1.403       .  A
C4233      H4240   1.084       .  S
C4234      C4235   1.402       .  A
C4235      C4236   1.409       .  A
C4235      N4242   1.437       .  S
C4236      C4237   1.416       .  A
C4236      H4241   1.078       .  S
C4237      C4238   1.430       .  A
C4238      N4239   1.437       .  S
N4239      H4243   1.046       .  S
N4239      H4244   1.044       .  S
N4242      H4245   1.045       .  S
N4242      H4246   1.045       .  S
C4247      C4248   1.407       .  A
C4247      C4252   1.418       .  A
C4247      H4254   1.083       .  S
C4248      C4249   1.423       .  A
C4249      C4250   1.418       .  A
C4249      N4256   1.435       .  S
C4250      C4251   1.407       .  A
C4250      H4255   1.083       .  S
C4251      C4252   1.414       .  A
C4252      N4253   1.436       .  S
N4253      H4257   1.046       .  S
N4253      H4258   1.046       .  S
N4256      H4259   1.043       .  S
N4256      H4260   1.045       .  S
C4261      C4262   1.413       .  A
C4261      C4266   1.403       .  A
C4261      H4268   1.081       .  S
C4262      C4263   1.412       .  A
C4263      C4264   1.404       .  A
C4263      N4270   1.431       .  S
C4264      C4265   1.404       .  A
C4264      H4269   1.084       .  S
C4265      C4266   1.404       .  A
C4266      N4267   1.429       .  S
N4267      H4271   1.046       .  S
N4267      H4272   1.046       .  S
N4270      H4273   1.045       .  S
N4270      H4274   1.046       .  S
C4275      C4276   1.420       .  A
C4275      C4280   1.428       .  A
C4275      H4282   1.080       .  S
C4276      C4277   1.428       .  A
C4277      C4278   1.436       .  A
C4277      N4284   1.430       .  S
C4278      C4279   1.415       .  A
C4278      H4283   1.083       .  S
C4279      C4280   1.428       .  A
C4280      N4281   1.439       .  S
N4281      H4285   1.046       .  S
N4281      H4286   1.044       .  S
N4284      H4287   1.046       .  S
N4284      H4288   1.045       .  S
C4289      C4290   1.410       .  A
C4289      C4294   1.401   1_545  A
C4289      H4296   1.083   1_545  S
C4290      C4291   1.405       .  A
C4291      C4292   1.401       .  A
C4291      N4298   1.437       .  S
C4292      C4293   1.405       .  A
C4292      H4297   1.076       .  S
C4293      C4294   1.409   1_545  A
C4294      N4295   1.438       .  S
N4295      H4299   1.046   1_565  S
N4295      H4300   1.044       .  S
N4298      H4301   1.046       .  S
N4298      H4302   1.046       .  S
C4303      C4304   1.419       .  A
C4303      C4308   1.427       .  A
C4303      H4310   1.080       .  S
C4304      C4305   1.439       .  A
C4305      C4306   1.420       .  A
C4305      N4312   1.432       .  S
C4306      C4307   1.406       .  A
C4306      H4311   1.083       .  S
C4307      C4308   1.424       .  A
C4308      N4309   1.436       .  S
N4309      H4313   1.045       .  S
N4309      H4314   1.043       .  S
N4312      H4315   1.041       .  S
N4312      H4316   1.040       .  S
C4317      C4318   1.396       .  A
C4317      C4322   1.401       .  A
C4317      H4324   1.083       .  S
C4318      C4319   1.407       .  A
C4319      C4320   1.398       .  A
C4319      N4326   1.437       .  S
C4320      C4321   1.400       .  A
C4320      H4325   1.084       .  S
C4321      C4322   1.409       .  A
C4322      N4323   1.437       .  S
N4323      H4327   1.046       .  S
N4323      H4328   1.046       .  S
N4326      H4329   1.046       .  S
N4326      H4330   1.046       .  S
C4331      C4332   1.401       .  A
C4331      C4336   1.410       .  A
C4331      H4338   1.084       .  S
C4332      C4333   1.415       .  A
C4333      C4334   1.398       .  A
C4333      N4340   1.439       .  S
C4334      C4335   1.406       .  A
C4334      H4339   1.084       .  S
C4335      C4336   1.420       .  A
C4336      N4337   1.438       .  S
N4337      H4341   1.046       .  S
N4337      H4342   1.046       .  S
N4340      H4343   1.044       .  S
N4340      H4344   1.045       .  S
C4345      C4346   1.398       .  A
C4345      C4350   1.390       .  A
C4345      H4352   1.083       .  S
C4346      C4347   1.413       .  A
C4347      C4348   1.400       .  A
C4347      N4354   1.437       .  S
C4348      C4349   1.401       .  A
C4348      H4353   1.084       .  S
C4349      C4350   1.413       .  A
C4350      N4351   1.440       .  S
N4351      H4355   1.046       .  S
N4351      H4356   1.043       .  S
N4354      H4357   1.043       .  S
N4354      H4358   1.045       .  S
C4359      C4360   1.397       .  A
C4359      C4364   1.414       .  A
C4359      H4366   1.084       .  S
C4360      C4361   1.418       .  A
C4361      C4362   1.419       .  A
C4361      N4368   1.430       .  S
C4362      C4363   1.415       .  A
C4362      H4367   1.075       .  S
C4363      C4364   1.447       .  A
C4364      N4365   1.440       .  S
N4365      H4369   1.046   1_565  S
N4365      H4370   1.036   1_565  S
N4368      H4371   1.045       .  S
N4368      H4372   1.042       .  S
C4373      C4374   1.403       .  A
C4373      C4378   1.415       .  A
C4373      H4380   1.084       .  S
C4374      C4375   1.427       .  A
C4375      C4376   1.420       .  A
C4375      N4382   1.437       .  S
C4376      C4377   1.408       .  A
C4376      H4381   1.083       .  S
C4377      C4378   1.422       .  A
C4378      N4379   1.431       .  S
N4379      H4383   1.046       .  S
N4379      H4384   1.046       .  S
N4382      H4385   1.043       .  S
N4382      H4386   1.045       .  S
C4387      C4388   1.399       .  A
C4387      C4392   1.400       .  A
C4387      H4394   1.084       .  S
C4388      C4389   1.404       .  A
C4389      C4390   1.399       .  A
C4389      N4396   1.431       .  S
C4390      C4391   1.406       .  A
C4390      H4395   1.083       .  S
C4391      C4392   1.425       .  A
C4392      N4393   1.432       .  S
N4393      H4397   1.045       .  S
N4393      H4398   1.045       .  S
N4396      H4399   1.046       .  S
N4396      H4400   1.045       .  S
C4401      C4402   1.406       .  A
C4401      C4406   1.405       .  A
C4401      H4408   1.083       .  S
C4402      C4403   1.407       .  A
C4403      C4404   1.395       .  A
C4403      N4410   1.438       .  S
C4404      C4405   1.407       .  A
C4404      H4409   1.084       .  S
C4405      C4406   1.414       .  A
C4406      N4407   1.432       .  S
N4407      H4411   1.045       .  S
N4407      H4412   1.045       .  S
N4410      H4413   1.043       .  S
N4410      H4414   1.045       .  S
C4415      C4416   1.396       .  A
C4415      C4420   1.395       .  A
C4415      H4422   1.082       .  S
C4416      C4417   1.400       .  A
C4417      C4418   1.390       .  A
C4417      N4424   1.438       .  S
C4418      C4419   1.402       .  A
C4418      H4423   1.084       .  S
C4419      C4420   1.411       .  A
C4420      N4421   1.438       .  S
N4421      H4425   1.046       .  S
N4421      H4426   1.046       .  S
N4424      H4427   1.045       .  S
N4424      H4428   1.046       .  S
C4429      C4430   1.406       .  A
C4429      C4434   1.419       .  A
C4429      H4436   1.083       .  S
C4430      C4431   1.422       .  A
C4431      C4432   1.417       .  A
C4431      N4438   1.438       .  S
C4432      C4433   1.408       .  A
C4432      H4437   1.083       .  S
C4433      C4434   1.418       .  A
C4434      N4435   1.437       .  S
N4435      H4439   1.046       .  S
N4435      H4440   1.046       .  S
N4438      H4441   1.043       .  S
N4438      H4442   1.045       .  S
C4443      C4444   1.407       .  A
C4443      C4448   1.424       .  A
C4443      H4450   1.080       .  S
C4444      C4445   1.421       .  A
C4445      C4446   1.420       .  A
C4445      N4452   1.437       .  S
C4446      C4447   1.416       .  A
C4446      H4451   1.078       .  S
C4447      C4448   1.428       .  A
C4448      N4449   1.437       .  S
N4449      H4453   1.046       .  S
N4449      H4454   1.045       .  S
N4452      H4455   1.043       .  S
N4452      H4456   1.045       .  S
C4457      C4458   1.397       .  A
C4457      C4462   1.393       .  A
C4457      H4464   1.084       .  S
C4458      C4459   1.408       .  A
C4459      C4460   1.380       .  A
C4459      N4466   1.441       .  S
C4460      C4461   1.398       .  A
C4460      H4465   1.085       .  S
C4461      C4462   1.405       .  A
C4462      N4463   1.438       .  S
N4463      H4467   1.046       .  S
N4463      H4468   1.046       .  S
N4466      H4469   1.043       .  S
N4466      H4470   1.045       .  S
C4471      C4472   1.405       .  A
C4471      C4476   1.398       .  A
C4471      H4478   1.084       .  S
C4472      C4473   1.407       .  A
C4473      C4474   1.406       .  A
C4473      N4480   1.436       .  S
C4474      C4475   1.405       .  A
C4474      H4479   1.078       .  S
C4475      C4476   1.412       .  A
C4476      N4477   1.438       .  S
N4477      H4481   1.046       .  S
N4477      H4482   1.042       .  S
N4480      H4483   1.045       .  S
N4480      H4484   1.046       .  S
C4485      C4486   1.419       .  A
C4485      C4490   1.411       .  A
C4485      H4492   1.081       .  S
C4486      C4487   1.420       .  A
C4487      C4488   1.418       .  A
C4487      N4494   1.432       .  S
C4488      C4489   1.409       .  A
C4488      H4493   1.082       .  S
C4489      C4490   1.414       .  A
C4490      N4491   1.438       .  S
N4491      H4495   1.046       .  S
N4491      H4496   1.042       .  S
N4494      H4497   1.045       .  S
N4494      H4498   1.046       .  S
C4499      C4500   1.411       .  A
C4499      C4504   1.398       .  A
C4499      H4506   1.080       .  S
C4500      C4501   1.412       .  A
C4501      C4502   1.402       .  A
C4501      N4508   1.437       .  S
C4502      C4503   1.400       .  A
C4502      H4507   1.084       .  S
C4503      C4504   1.402       .  A
C4504      N4505   1.438       .  S
N4505      H4509   1.046       .  S
N4505      H4510   1.044       .  S
N4508      H4511   1.045       .  S
N4508      H4512   1.046       .  S
C4513      C4514   1.395       .  A
C4513      C4518   1.401       .  A
C4513      H4520   1.084       .  S
C4514      C4515   1.418       .  A
C4515      C4516   1.404       .  A
C4515      N4522   1.435       .  S
C4516      C4517   1.405       .  A
C4516      H4521   1.084       .  S
C4517      C4518   1.421       .  A
C4518      N4519   1.433       .  S
N4519      H4523   1.046       .  S
N4519      H4524   1.046       .  S
N4522      H4525   1.042       .  S
N4522      H4526   1.045       .  S
C4527      C4528   1.402       .  A
C4527      C4532   1.403       .  A
C4527      H4534   1.084       .  S
C4528      C4529   1.414       .  A
C4529      C4530   1.391       .  A
C4529      N4536   1.438       .  S
C4530      C4531   1.402       .  A
C4530      H4535   1.084       .  S
C4531      C4532   1.418       .  A
C4532      N4533   1.433       .  S
N4533      H4537   1.045       .  S
N4533      H4538   1.046       .  S
N4536      H4539   1.041       .  S
N4536      H4540   1.045       .  S
C4541      C4542   1.401       .  A
C4541      C4546   1.401       .  A
C4541      H4548   1.084       .  S
C4542      C4543   1.403       .  A
C4543      C4544   1.399       .  A
C4543      N4550   1.432       .  S
C4544      C4545   1.409       .  A
C4544      H4549   1.081       .  S
C4545      C4546   1.420       .  A
C4546      N4547   1.436       .  S
N4547      H4551   1.045       .  S
N4547      H4552   1.044       .  S
N4550      H4553   1.046       .  S
N4550      H4554   1.046       .  S
C4555      C4556   1.409       .  A
C4555      C4560   1.403       .  A
C4555      H4562   1.078   1_545  S
C4556      C4557   1.421       .  A
C4557      C4558   1.399       .  A
C4557      N4564   1.439       .  S
C4558      C4559   1.404       .  A
C4558      H4563   1.073       .  S
C4559      C4560   1.418       .  A
C4560      N4561   1.437       .  S
N4561      H4565   1.045       .  S
N4561      H4566   1.043       .  S
N4564      H4567   1.041       .  S
N4564      H4568   1.044       .  S
C4569      C4570   1.403       .  A
C4569      C4574   1.397       .  A
C4569      H4576   1.083       .  S
C4570      C4571   1.405       .  A
C4571      C4572   1.402       .  A
C4571      N4578   1.431       .  S
C4572      C4573   1.410       .  A
C4572      H4577   1.083       .  S
C4573      C4574   1.420       .  A
C4574      N4575   1.432       .  S
N4575      H4579   1.045       .  S
N4575      H4580   1.045       .  S
N4578      H4581   1.046       .  S
N4578      H4582   1.045       .  S
C4583      C4584   1.406       .  A
C4583      C4588   1.406       .  A
C4583      H4590   1.082       .  S
C4584      C4585   1.418       .  A
C4585      C4586   1.409       .  A
C4585      N4592   1.438       .  S
C4586      C4587   1.407       .  A
C4586      H4591   1.084       .  S
C4587      C4588   1.410       .  A
C4588      N4589   1.438       .  S
N4589      H4593   1.046       .  S
N4589      H4594   1.045       .  S
N4592      H4595   1.042       .  S
N4592      H4596   1.046       .  S
C4597      C4598   1.400       .  A
C4597      C4602   1.376       .  A
C4597      H4604   1.085       .  S
C4598      C4599   1.407       .  A
C4599      C4600   1.385       .  A
C4599      N4606   1.438       .  S
C4600      C4601   1.400       .  A
C4600      H4605   1.085       .  S
C4601      C4602   1.401       .  A
C4602      N4603   1.434       .  S
N4603      H4607   1.045       .  S
N4603      H4608   1.046       .  S
N4606      H4609   1.042       .  S
N4606      H4610   1.046       .  S
C4611      C4612   1.404       .  A
C4611      C4616   1.404       .  A
C4611      H4618   1.084       .  S
C4612      C4613   1.405       .  A
C4613      C4614   1.396       .  A
C4613      N4620   1.432       .  S
C4614      C4615   1.400       .  A
C4614      H4619   1.082       .  S
C4615      C4616   1.413       .  A
C4616      N4617   1.437       .  S
N4617      H4621   1.046       .  S
N4617      H4622   1.044       .  S
N4620      H4623   1.046       .  S
N4620      H4624   1.046       .  S
C4625      C4626   1.411       .  A
C4625      C4630   1.418       .  A
C4625      H4632   1.081       .  S
C4626      C4627   1.416       .  A
C4627      C4628   1.400       .  A
C4627      N4634   1.436       .  S
C4628      C4629   1.411       .  A
C4628      H4633   1.078       .  S
C4629      C4630   1.429       .  A
C4630      N4631   1.438       .  S
N4631      H4635   1.045       .  S
N4631      H4636   1.041       .  S
N4634      H4637   1.043       .  S
N4634      H4638   1.045       .  S
C4639      C4640   1.396       .  A
C4639      C4644   1.382       .  A
C4639      H4646   1.085       .  S
C4640      C4641   1.405       .  A
C4641      C4642   1.394       .  A
C4641      N4648   1.432       .  S
C4642      C4643   1.401       .  A
C4642      H4647   1.084       .  S
C4643      C4644   1.404       .  A
C4644      N4645   1.439       .  S
N4645      H4649   1.046       .  S
N4645      H4650   1.045       .  S
N4648      H4651   1.046       .  S
N4648      H4652   1.045       .  S
