geometry optimzed in LAMMPS
_audit_creation_date              2020-11-30 
_audit_creation_method            'lammps2cif' 
_symmetry_space_group_name_H-M    'P1' 
_symmetry_Int_Tables_number       1 
_symmetry_cell_setting            triclinic 
loop_ 
_symmetry_equiv_pos_as_xyz 
  x,y,z 
_cell_length_a                    49.5641236 
_cell_length_b                    49.19567374274112 
_cell_length_c                    49.4344141488603 
_cell_angle_alpha                 90.29363806750295 
_cell_angle_beta                  90.61018559983758 
_cell_angle_gamma                 89.47044415503893 
loop_ 
_atom_site_label 
_atom_site_type_symbol 
_atom_site_fract_x 
_atom_site_fract_y 
_atom_site_fract_z 
_atom_site_charge 
N1          N  0.62351492  0.15616166  0.28398135    -0.01300
C2          C  0.60001473  0.14301362  0.28722464    -0.12000
C3          C  0.59923481  0.12222407  0.26837126    -0.07600
C4          C  0.62264604  0.12272348  0.25318857    -0.08200
C5          C  0.63740587  0.14380663  0.26379256    -0.12100
N6          N  0.35051832  0.10135218  0.29907932    -0.01300
C7          C  0.33152692  0.09416369  0.28184475    -0.12000
C8          C  0.33839195  0.06869860  0.27104464    -0.07600
C9          C  0.36337644  0.06155164  0.28318159    -0.08200
C10         C  0.37062867  0.08321593  0.29993302    -0.12100
C11         C  0.51666846  0.17871630  0.36589860     0.30300
C12         C  0.47705383  0.20088728  0.39881195     0.30300
C13         C  0.52110414  0.17446943  0.39649060    -0.05900
C14         C  0.51358511  0.20954668  0.36535779    -0.06600
C15         C  0.48781214  0.16834650  0.36173479    -0.06500
C16         C  0.50018070  0.18504159  0.41320092    -0.05900
C17         C  0.49291241  0.22119255  0.38049080    -0.06600
C18         C  0.46756938  0.17985128  0.37759923    -0.06500
C19         C  0.51178927  0.19214644  0.43746654    -0.31900
N20         N  0.53871296  0.18943238  0.43564837     0.14600
C21         C  0.54462595  0.17875847  0.41115126    -0.31900
H22         H  0.56471399  0.17879605  0.40276556     0.16500
C23         C  0.49244309  0.24845465  0.37263268    -0.30900
N24         N  0.51402880  0.25359310  0.35653808     0.13300
C25         C  0.52707456  0.22969605  0.35243786    -0.30900
C26         C  0.44424402  0.16578861  0.37155075    -0.31200
N27         N  0.45019915  0.14511220  0.35400367     0.13800
H28         H  0.42461514  0.17047172  0.37958317     0.16400
C29         C  0.47684953  0.14677580  0.34803929    -0.31200
H30         H  0.48789390  0.13268937  0.33531611     0.16400
H31         H  0.54479356  0.22686696  0.34011201     0.16400
H32         H  0.50157160  0.20253863  0.45376850     0.16500
H33         H  0.47672047  0.26320306  0.37681769     0.16400
N34         N  0.40723783  0.81126277  0.26875152    -0.01300
C35         C  0.38989194  0.82775201  0.25484250    -0.12000
C36         C  0.40305138  0.85072911  0.24715995    -0.07600
C37         C  0.42924533  0.84770414  0.25789321    -0.08200
C38         C  0.43127313  0.82340969  0.27187198    -0.12100
N39         N  0.66733131  0.85538555  0.24535356    -0.01300
C40         C  0.68049106  0.87107379  0.22733814    -0.12000
C41         C  0.66675728  0.89578607  0.22338647    -0.07600
C42         C  0.64490958  0.89471646  0.24113453    -0.08200
C43         C  0.64555393  0.86937350  0.25403472    -0.12100
C44         C  0.71547732  0.03174976  0.11990762     0.30300
C45         C  0.69720884  0.98843909  0.15111285     0.30300
C46         C  0.70843302  0.00529162  0.10491350    -0.05900
C47         C  0.73403750  0.02196036  0.14323896    -0.06600
C48         C  0.68901694  0.03703516  0.13550052    -0.06500
C49         C  0.70009034  0.98296939  0.12035347    -0.05900
C50         C  0.72548131  0.99930689  0.15752124    -0.06600
C51         C  0.67956295  0.01485904  0.15103804    -0.06500
C52         C  0.70608622  0.96031739  0.10456486    -0.31900
N53         N  0.71454170  0.96855719  0.07991504     0.14600
C54         C  0.71595414  0.99589268  0.08002115    -0.31900
H55         H  0.72500566  0.00775561  0.06418108     0.16500
C56         C  0.74458492  0.99388158  0.17690196    -0.30900
N57         N  0.76309026  0.01400500  0.17710477     0.13300
C58         C  0.75662838  0.03152091  0.15671840    -0.30900
C59         C  0.66258027  0.02568367  0.17029916    -0.31200
N60         N  0.66251155  0.05310303  0.16840782     0.13800
H61         H  0.65363245  0.01470273  0.18678360     0.16400
C62         C  0.67894582  0.06026703  0.14791460    -0.31200
H63         H  0.68566764  0.08081075  0.14442290     0.16400
H64         H  0.76633198  0.05060827  0.15278142     0.16400
H65         H  0.70745933  0.93950659  0.11139164     0.16500
H66         H  0.74419909  0.97717652  0.19103108     0.16400
C67         C  0.55618835  0.75905927  0.38326036     0.30300
C68         C  0.51426078  0.77951083  0.35027541     0.30300
C69         C  0.56358751  0.78262929  0.36346092    -0.05900
C70         C  0.54290064  0.73841732  0.36275629    -0.06600
C71         C  0.53103221  0.77097812  0.39714747    -0.06500
C72         C  0.54203562  0.79294159  0.34779737    -0.05900
C73         C  0.52152714  0.74889560  0.34672704    -0.06600
C74         C  0.50960003  0.78049505  0.38101570    -0.06500
C75         C  0.55222020  0.81018173  0.32884141    -0.31900
N76         N  0.57958704  0.81020630  0.33046842     0.14600
C77         C  0.58665348  0.79233920  0.35072087    -0.31900
H78         H  0.60682051  0.78494232  0.35475474     0.16500
C79         C  0.51221287  0.72788493  0.33057183    -0.30900
N80         N  0.52820954  0.70575847  0.33401812     0.13300
C81         C  0.54712460  0.71178799  0.35343041    -0.30900
C82         C  0.48719001  0.78107978  0.39757490    -0.31200
N83         N  0.49501509  0.77416606  0.42315590     0.13800
H84         H  0.46649304  0.78383202  0.39091323     0.16400
C85         C  0.52156605  0.76793432  0.42287751    -0.31200
H86         H  0.53261528  0.75926427  0.43981312     0.16400
H87         H  0.56324674  0.69813831  0.35962596     0.16400
H88         H  0.54016724  0.82099587  0.31396816     0.16500
H89         H  0.49515925  0.72839704  0.31677008     0.16400
C90         C  0.30188416  0.00108447  0.18023864     0.30300
C91         C  0.28804739  0.96071271  0.14404062     0.30300
C92         C  0.31704489  0.97344978  0.18323665    -0.05900
C93         C  0.27196508  0.99249639  0.18022577    -0.06600
C94         C  0.30530320  0.00822956  0.15007346    -0.06500
C95         C  0.30970925  0.95275126  0.16531897    -0.05900
C96         C  0.26488696  0.97154006  0.16269270    -0.06600
C97         C  0.29934827  0.98705160  0.13218014    -0.06500
C98         C  0.32290333  0.92937449  0.17417911    -0.31900
N99         N  0.33925049  0.93556388  0.19561317     0.14600
C100        C  0.33573106  0.96247765  0.20130867    -0.31900
H101        H  0.34585585  0.97335252  0.21749108     0.16500
C102        C  0.23810640  0.96559978  0.16840821    -0.30900
N103        N  0.22798348  0.98382531  0.18688582     0.13300
C104        C  0.24898617  0.00036225  0.19380429    -0.30900
C105        C  0.29571299  0.99790861  0.10685146    -0.31200
N106        N  0.29755084  0.02506991  0.10844970     0.13800
H107        H  0.28913013  0.98714267  0.08884509     0.16400
C108        C  0.30183782  0.03187845  0.13483528    -0.31200
H109        H  0.29997875  0.05234071  0.14272339     0.16400
H110        H  0.24796985  0.01732769  0.20772529     0.16400
H111        H  0.31995242  0.90899464  0.16650697     0.16500
H112        H  0.22772222  0.94824577  0.16032959     0.16400
N113        N  0.13257904  0.28448910  0.68634360    -0.01300
C114        C  0.11136745  0.27739481  0.67064124    -0.12000
C115        C  0.11185065  0.29176579  0.64666839    -0.07600
C116        C  0.13418375  0.30826082  0.64792191    -0.08200
C117        C  0.14717005  0.30227046  0.67205003    -0.12100
N118        N  0.15484650  0.24765083  0.37482520    -0.01300
C119        C  0.17094474  0.26393159  0.39040913    -0.12000
C120        C  0.15760528  0.27630385  0.41209979    -0.07600
C121        C  0.13150365  0.26563444  0.40914404    -0.08200
C122        C  0.13028764  0.24803747  0.38638605    -0.12100
C123        C  0.22770124  0.40458730  0.52115676     0.30300
C124        C  0.20587682  0.36305303  0.48762874     0.30300
C125        C  0.21406437  0.41344292  0.49431830    -0.05900
C126        C  0.24783083  0.38187820  0.51099162    -0.06600
C127        C  0.20578860  0.38656589  0.53300811    -0.06500
C128        C  0.20379911  0.39232118  0.47706980    -0.05900
C129        C  0.23674807  0.36156213  0.49376629    -0.06600
C130        C  0.19461214  0.36623973  0.51621260    -0.06500
C131        C  0.21001458  0.39975869  0.45114105    -0.31900
N132        N  0.22263634  0.42380573  0.45165687     0.14600
C133        C  0.22427778  0.43267116  0.47747504    -0.31900
H134        H  0.23794985  0.44850304  0.48407273     0.16500
C135        C  0.25740661  0.34380726  0.48743814    -0.30900
N136        N  0.28001983  0.35068432  0.50144542     0.13300
C137        C  0.27439503  0.37364380  0.51610624    -0.30900
C138        C  0.17789738  0.35115421  0.53191359    -0.31200
N139        N  0.17863136  0.36169686  0.55725894     0.13800
H140        H  0.16752563  0.33275606  0.52598281     0.16400
C141        C  0.19576600  0.38286965  0.55837143    -0.31200
H142        H  0.20170983  0.39353496  0.57665438     0.16400
H143        H  0.28793409  0.38254064  0.53086172     0.16400
H144        H  0.21091017  0.38575656  0.43417357     0.16500
H145        H  0.25635318  0.32662268  0.47381122     0.16400
N146        N  0.88298678  0.22141725  0.35815000    -0.01300
C147        C  0.86724388  0.23602320  0.37541949    -0.12000
C148        C  0.88005509  0.24197115  0.39988244    -0.07600
C149        C  0.90487907  0.22756263  0.39690713    -0.08200
C150        C  0.90651945  0.21495621  0.37085107    -0.12100
N151        N  0.88151488  0.24289045  0.67014983    -0.01300
C152        C  0.89518170  0.22541981  0.68635366    -0.12000
C153        C  0.91693869  0.21445610  0.67260230    -0.07600
C154        C  0.91544117  0.22610866  0.64650942    -0.08200
C155        C  0.89302260  0.24352811  0.64558399    -0.12100
C156        C  0.04682971  0.11696080  0.73910647     0.30300
C157        C  0.00053218  0.14620807  0.72699604     0.30300
C158        C  0.02532255  0.10183169  0.72266024    -0.05900
C159        C  0.03093145  0.12786099  0.76362227    -0.06600
C160        C  0.05081490  0.14300365  0.72304885    -0.06500
C161        C  0.00128164  0.11638700  0.71734989    -0.05900
C162        C  0.00694486  0.14248061  0.75790746    -0.06600
C163        C  0.02703951  0.15698086  0.71605689    -0.06500
C164        C  0.98093083  0.09749603  0.71885572    -0.31900
N165        N  0.99176857  0.07261066  0.72300813     0.14600
C166        C  0.01866992  0.07488259  0.72498873    -0.31900
H167        H  0.03189102  0.05875433  0.73209562     0.16500
C168        C  0.00140726  0.15704519  0.78139447    -0.30900
N169        N  0.02168015  0.15326693  0.79979933     0.13300
C170        C  0.03989819  0.13600525  0.78886439    -0.30900
C171        C  0.03391093  0.18263183  0.70869984    -0.31200
N172        N  0.06049969  0.18552485  0.71281604     0.13800
H173        H  0.02048833  0.19867189  0.70178555     0.16400
C174        C  0.07116408  0.16194336  0.72217538    -0.31200
H175        H  0.09191715  0.15920589  0.72870749     0.16400
H176        H  0.05984037  0.13221606  0.79725951     0.16400
H177        H  0.95967117  0.10219170  0.72105771     0.16500
H178        H  0.98525283  0.17152824  0.78398450     0.16400
C179        C  0.83479955  0.32556199  0.48120273     0.30300
C180        C  0.81646868  0.36598690  0.51781025     0.30300
C181        C  0.83820698  0.35585901  0.47264955    -0.05900
C182        C  0.80388677  0.32617532  0.48712693    -0.06600
C183        C  0.84648976  0.32468163  0.51086292    -0.06500
C184        C  0.83022680  0.37575818  0.49179870    -0.05900
C185        C  0.79487616  0.34602445  0.50593968    -0.06600
C186        C  0.83722282  0.34480932  0.52919378    -0.06500
C187        C  0.82458144  0.39936930  0.47785247    -0.31900
N188        N  0.82635666  0.39489816  0.45096853     0.14600
C189        C  0.83416180  0.36845480  0.44747956    -0.31900
H190        H  0.83406543  0.35809311  0.42811351     0.16500
C191        C  0.76818867  0.33991957  0.51131650    -0.30900
N192        N  0.75991973  0.31942959  0.49477351     0.13300
C193        C  0.78132026  0.31121197  0.47980270    -0.30900
C194        C  0.84320338  0.33519726  0.55512386    -0.31200
N195        N  0.85611361  0.31058977  0.55359882     0.13800
H196        H  0.83703488  0.34477947  0.57384596     0.16400
C197        C  0.85732375  0.30374253  0.52680482    -0.31200
H198        H  0.86436509  0.28423979  0.51933918     0.16400
H199        H  0.77994270  0.29537690  0.46471936     0.16400
H200        H  0.81672159  0.41788929  0.48676782     0.16500
H201        H  0.75616799  0.34830507  0.52750156     0.16400
C202        C  0.99102291  0.14535860  0.31470962     0.30300
C203        C  0.03066302  0.10819385  0.29707889     0.30300
C204        C  0.98541710  0.11520290  0.31850139    -0.05900
C205        C  0.99863116  0.14679470  0.28410658    -0.06600
C206        C  0.01922110  0.14808831  0.32779383    -0.06500
C207        C  0.00530268  0.09701889  0.31059799    -0.05900
C208        C  0.01781938  0.12749120  0.27481509    -0.06600
C209        C  0.03997125  0.13018188  0.31888936    -0.06500
C210        C  0.99486816  0.07138674  0.31321576    -0.31900
N211        N  0.96856037  0.07329362  0.32054426     0.14600
C212        C  0.96265837  0.10024735  0.32349762    -0.31900
H213        H  0.94266211  0.10875645  0.32616925     0.16500
C214        C  0.02362222  0.13494585  0.24810920    -0.30900
N215        N  0.00913631  0.15776318  0.24120748     0.13300
C216        C  0.99521629  0.16569460  0.26345106    -0.30900
C217        C  0.06388190  0.14391775  0.32617422    -0.31200
N218        N  0.05789125  0.16715232  0.34054530     0.13800
H219        H  0.08406549  0.13823860  0.32008883     0.16400
C220        C  0.03080026  0.16992634  0.34080929    -0.31200
H221        H  0.02020857  0.18771548  0.34833923     0.16400
H222        H  0.98451879  0.18481486  0.26478855     0.16400
H223        H  0.00528870  0.05275846  0.30787548     0.16500
H224        H  0.03823571  0.12516038  0.23509746     0.16400
N225        N  0.25283891  0.64940610  0.17144025    -0.01300
C226        C  0.26702314  0.62873877  0.18317990    -0.12000
C227        C  0.26869918  0.60706963  0.16515134    -0.07600
C228        C  0.25405070  0.61411393  0.14232722    -0.08200
C229        C  0.24455356  0.64033566  0.14670424    -0.12100
N230        N  0.25721136  0.33385462  0.14937711    -0.01300
C231        C  0.27618320  0.34944941  0.16269914    -0.12000
C232        C  0.28408038  0.37283921  0.14829512    -0.07600
C233        C  0.26864161  0.36997846  0.12406832    -0.08200
C234        C  0.25235540  0.34628499  0.12518760    -0.12100
C235        C  0.41210866  0.49557079  0.19690715     0.30300
C236        C  0.37042566  0.45780931  0.18366650     0.30300
C237        C  0.42056871  0.46770538  0.18470948    -0.05900
C238        C  0.39326826  0.48701165  0.21960617    -0.06600
C239        C  0.39034888  0.50487415  0.17583623    -0.06500
C240        C  0.39973328  0.44886067  0.17871367    -0.05900
C241        C  0.37271751  0.46791394  0.21380656    -0.06600
C242        C  0.36980341  0.48535765  0.16883633    -0.06500
C243        C  0.41104103  0.42337156  0.18016597    -0.31900
N244        N  0.43753141  0.42572374  0.18624066     0.14600
C245        C  0.44365153  0.45243145  0.18828189    -0.31900
H246        H  0.46249299  0.45986355  0.19655770     0.16500
C247        C  0.35938389  0.46473171  0.23816819    -0.30900
N248        N  0.37024452  0.48190448  0.25691867     0.13300
C249        C  0.39069936  0.49553175  0.24579125    -0.30900
C250        C  0.34689363  0.49980871  0.16236775    -0.31200
N251        N  0.35179289  0.52650624  0.16519163     0.13800
H252        H  0.32692127  0.49134661  0.15985325     0.16400
C253        C  0.37739611  0.52988549  0.17410648    -0.31200
H254        H  0.38453032  0.54877901  0.18273063     0.16400
H255        H  0.40251542  0.51094334  0.25602722     0.16400
H256        H  0.39988791  0.40461439  0.18152389     0.16500
H257        H  0.34326909  0.45094323  0.24259354     0.16400
N258        N  0.27803161  0.35916695  0.86463666    -0.01300
C259        C  0.29429155  0.37403609  0.84860713    -0.12000
C260        C  0.29899374  0.39979967  0.86043641    -0.07600
C261        C  0.28375142  0.39952333  0.88474913    -0.08200
C262        C  0.27098864  0.37429899  0.88629526    -0.12100
N263        N  0.27654163  0.65171652  0.87921918    -0.01300
C264        C  0.28145530  0.62961255  0.89424035    -0.12000
C265        C  0.26589831  0.63193457  0.91759781    -0.07600
C266        C  0.25111392  0.65659467  0.91682268    -0.08200
C267        C  0.25833330  0.66782665  0.89204730    -0.12100
C268        C  0.12526963  0.72400960  0.02373309     0.30300
C269        C  0.16839665  0.70522930  0.99220699     0.30300
C270        C  0.11809299  0.70487917  0.00002264    -0.05900
C271        C  0.14203193  0.74614794  0.00919639    -0.06600
C272        C  0.14813049  0.70853418  0.03843870    -0.06500
C273        C  0.13998709  0.69539824  0.98416380    -0.05900
C274        C  0.16333832  0.73665633  0.99241393    -0.06600
C275        C  0.16941701  0.69885550  0.02248664    -0.06500
C276        C  0.13017940  0.69321567  0.95809107    -0.31900
N277        N  0.10395294  0.69995252  0.95735793     0.14600
C278        C  0.09635843  0.70754318  0.98243688    -0.31900
H279        H  0.07791429  0.71866853  0.98666086     0.16500
C280        C  0.18002562  0.75861760  0.98838930    -0.30900
N281        N  0.17128599  0.78021370  0.00324773     0.13300
C282        C  0.14904650  0.77230007  0.01683457    -0.30900
C283        C  0.18813920  0.68730858  0.03955697    -0.31200
N284        N  0.17905445  0.68980437  0.06518092     0.13800
H285        H  0.20725402  0.67820024  0.03393795     0.16400
C286        C  0.15482828  0.70284689  0.06493364    -0.31200
H287        H  0.14330483  0.70815265  0.08269842     0.16400
H288        H  0.14052877  0.78338045  0.03367288     0.16400
H289        H  0.14235184  0.69192172  0.94005568     0.16500
H290        H  0.19846943  0.75839582  0.97699825     0.16400
C291        C  0.36849621  0.48400915  0.80988526     0.30300
C292        C  0.40565036  0.52263629  0.79347423     0.30300
C293        C  0.39823475  0.47531361  0.81058410    -0.05900
C294        C  0.36465588  0.49478192  0.78065290    -0.06600
C295        C  0.36871101  0.51146905  0.82589785    -0.06500
C296        C  0.41632286  0.49541448  0.80451143    -0.05900
C297        C  0.38344044  0.51397353  0.77200722    -0.06600
C298        C  0.38727069  0.53155036  0.81776504    -0.06500
C299        C  0.44154415  0.48400083  0.80489155    -0.31900
N300        N  0.43947598  0.45674744  0.80534871     0.14600
C301        C  0.41278668  0.45099063  0.80875454    -0.31900
H302        H  0.40414651  0.43091169  0.80719100     0.16500
C303        C  0.37331748  0.52343712  0.74717609    -0.30900
N304        N  0.35079221  0.50917625  0.73944884     0.13300
C305        C  0.34471724  0.49306590  0.76079578    -0.30900
C306        C  0.37647177  0.55616502  0.82763621    -0.31200
N307        N  0.35354255  0.55134158  0.84212629     0.13800
H308        H  0.38377069  0.57623959  0.82294390     0.16400
C309        C  0.34883825  0.52427804  0.84076088    -0.31200
H310        H  0.33115517  0.51458208  0.84878370     0.16400
H311        H  0.32658455  0.48125699  0.76208977     0.16400
H312        H  0.46017859  0.49463013  0.80146209     0.16500
H313        H  0.38118058  0.54060389  0.73644454     0.16400
C314        C  0.14291232  0.29076118  0.99290338     0.30300
C315        C  0.17780048  0.30489862  0.03556038     0.30300
C316        C  0.12969035  0.30042381  0.01924371    -0.05900
C317        C  0.16350104  0.26869457  0.00256746    -0.06600
C318        C  0.16235632  0.31441597  0.98712954    -0.06500
C319        C  0.14663654  0.30590813  0.04154599    -0.05900
C320        C  0.18026226  0.27546444  0.02461835    -0.06600
C321        C  0.18000708  0.32174868  0.00870844    -0.06500
C322        C  0.13060939  0.29888739  0.06387108    -0.31900
N323        N  0.10475482  0.29354453  0.05554533     0.14600
C324        C  0.10419740  0.29514212  0.02845881    -0.31900
H325        H  0.08709307  0.28894483  0.01621416     0.16500
C326        C  0.19636424  0.25295783  0.02979896    -0.30900
N327        N  0.19088304  0.23331115  0.01114027     0.13300
C328        C  0.17122998  0.24289973  0.99416752    -0.30900
C329        C  0.20174243  0.33473215  0.99669970    -0.31200
N330        N  0.19830572  0.33520375  0.96937071     0.13800
H331        H  0.21978027  0.34165009  0.00699818     0.16400
C332        C  0.17490723  0.32227193  0.96342105    -0.31200
H333        H  0.16865846  0.31677835  0.94309452     0.16400
H334        H  0.16349820  0.23222229  0.97659151     0.16400
H335        H  0.13794934  0.29529930  0.08424170     0.16500
H336        H  0.21151284  0.25117311  0.04562013     0.16400
N337        N  0.77715222  0.36958524  0.16665257    -0.01300
C338        C  0.75985799  0.38399125  0.18240673    -0.12000
C339        C  0.74897594  0.40513671  0.16700402    -0.07600
C340        C  0.76065521  0.40297823  0.14160531    -0.08200
C341        C  0.77783692  0.38089269  0.14188939    -0.12100
N342        N  0.76282284  0.67281805  0.11478927    -0.01300
C343        C  0.77058396  0.65080744  0.10081441    -0.12000
C344        C  0.75264496  0.63050072  0.10540027    -0.07600
C345        C  0.73380167  0.63948928  0.12356010    -0.08200
C346        C  0.74064385  0.66626056  0.12886340    -0.12100
N347        N  0.79860816  0.65695113  0.87066712    -0.01300
C348        C  0.78031364  0.64206896  0.85617274    -0.12000
C349        C  0.77036647  0.62189405  0.87270163    -0.07600
C350        C  0.78421147  0.62435401  0.89748299    -0.08200
C351        C  0.80134505  0.64665549  0.89590682    -0.12100
N352        N  0.77805525  0.36599774  0.85300579    -0.01300
C353        C  0.79360186  0.35197539  0.87129003    -0.12000
C354        C  0.79898192  0.36690796  0.89441172    -0.07600
C355        C  0.78525017  0.39181087  0.88846340    -0.08200
C356        C  0.77242719  0.39125326  0.86255031    -0.12100
C357        C  0.64973479  0.50419853  0.78389295     0.30300
C358        C  0.69236336  0.46805114  0.80090664     0.30300
C359        C  0.64235193  0.47797194  0.79866777    -0.05900
C360        C  0.66956895  0.49255947  0.76065506    -0.06600
C361        C  0.67147307  0.51541903  0.80391840    -0.06500
C362        C  0.66312474  0.45953146  0.80588379    -0.05900
C363        C  0.69079796  0.47444366  0.76944963    -0.06600
C364        C  0.69236722  0.49740181  0.81164020    -0.06500
C365        C  0.65157662  0.43407791  0.80518480    -0.31900
N366        N  0.62481529  0.43690158  0.80011367     0.14600
C367        C  0.61905534  0.46349579  0.79672866    -0.31900
H368        H  0.60034127  0.47097073  0.78786053     0.16500
C369        C  0.70781027  0.47057476  0.74720222    -0.30900
N370        N  0.69963523  0.48595527  0.72548735     0.13300
C371        C  0.67637939  0.49926119  0.73365974    -0.30900
C372        C  0.71110457  0.51198291  0.82577083    -0.31200
N373        N  0.70176951  0.53767673  0.82994928     0.13800
H374        H  0.73083009  0.50426704  0.83132680     0.16400
C375        C  0.67783878  0.54012537  0.81592953    -0.31200
H376        H  0.66586925  0.55849862  0.81407407     0.16400
H377        H  0.66574037  0.51408162  0.72136715     0.16400
H378        H  0.66250119  0.41493475  0.80435993     0.16500
H379        H  0.72561737  0.45787176  0.74695187     0.16400
C380        C  0.86383551  0.31358038  0.98760578     0.30300
C381        C  0.89710791  0.29313930  0.03030954     0.30300
C382        C  0.86037727  0.32649487  0.01619415    -0.05900
C383        C  0.86123357  0.28248356  0.99477942    -0.06600
C384        C  0.89526844  0.31539725  0.98423382    -0.06500
C385        C  0.87732202  0.31688764  0.03737841    -0.05900
C386        C  0.87780746  0.27298827  0.01625997    -0.06600
C387        C  0.91121110  0.30583260  0.00592791    -0.06500
C388        C  0.86973791  0.33124209  0.06020860    -0.31900
N389        N  0.84778346  0.34703660  0.05464953     0.14600
C390        C  0.84206346  0.34442175  0.02774611    -0.31900
H391        H  0.82491741  0.35372246  0.01755525     0.16500
C392        C  0.86954146  0.24726135  0.02286910    -0.30900
N393        N  0.84935389  0.23950793  0.00581706     0.13300
C394        C  0.84428111  0.26068861  0.98852765    -0.30900
C395        C  0.93754138  0.30552334  0.99787393    -0.31200
N396        N  0.93914827  0.31275370  0.97162610     0.13800
H397        H  0.95426073  0.29777582  0.00963521     0.16400
C398        C  0.91331997  0.31834041  0.96290994    -0.31200
H399        H  0.90762321  0.32232308  0.94213182     0.16400
H400        H  0.82861467  0.26055633  0.97319065     0.16400
H401        H  0.87880262  0.32998844  0.07992612     0.16500
H402        H  0.87668217  0.23564704  0.04010347     0.16400
C403        C  0.87853176  0.69728109  0.97575770     0.30300
C404        C  0.91300284  0.71894167  0.01550857     0.30300
C405        C  0.90771749  0.70232821  0.96761004    -0.05900
C406        C  0.87087703  0.72589306  0.98732587    -0.06600
C407        C  0.88276336  0.68019924  0.00141350    -0.06500
C408        C  0.92501808  0.71190977  0.98792542    -0.05900
C409        C  0.88809645  0.73672839  0.00749725    -0.06600
C410        C  0.89889553  0.69167238  0.02249779    -0.06500
C411        C  0.95041957  0.71236259  0.97755385    -0.31900
N412        N  0.94898718  0.70450681  0.95132240     0.14600
C413        C  0.92290571  0.69929271  0.94475119    -0.31900
H414        H  0.91556740  0.69423159  0.92468575     0.16500
C415        C  0.87807479  0.76237568  0.01389799    -0.30900
N416        N  0.85591848  0.76757393  0.99817585     0.13300
C417        C  0.85167762  0.74580242  0.98171596    -0.30900
C418        C  0.88594192  0.68389658  0.04605854    -0.31200
N419        N  0.86547428  0.66667520  0.03989422     0.13800
H420        H  0.88826903  0.69374247  0.06556686     0.16400
C421        C  0.86401794  0.66387043  0.01288808    -0.31200
H422        H  0.84666685  0.65553081  0.00235099     0.16400
H423        H  0.83613194  0.74506891  0.96622176     0.16400
H424        H  0.96860869  0.71859750  0.98809099     0.16500
H425        H  0.88659307  0.77644368  0.02848266     0.16400
C426        C  0.66215185  0.48140553  0.19063778     0.30300
C427        C  0.62221306  0.51518612  0.20860634     0.30300
C428        C  0.63339570  0.47299714  0.18271448    -0.05900
C429        C  0.65897794  0.48267192  0.22146574    -0.06600
C430        C  0.66434904  0.51169313  0.18283225    -0.06500
C431        C  0.61306468  0.49159183  0.19004041    -0.05900
C432        C  0.63936937  0.50074007  0.23120289    -0.06600
C433        C  0.64422871  0.52885421  0.19251314    -0.06500
C434        C  0.59007190  0.47684906  0.19412658    -0.31900
N435        N  0.59602765  0.45010747  0.19411068     0.14600
C436        C  0.62229012  0.44757669  0.18728901    -0.31900
H437        H  0.63432761  0.42960083  0.19139978     0.16500
C438        C  0.64836799  0.50755029  0.25726284    -0.30900
N439        N  0.66999349  0.49152302  0.26393667     0.13300
C440        C  0.67591108  0.47584975  0.24235673    -0.30900
C441        C  0.65126265  0.55514118  0.18667390    -0.31200
N442        N  0.67503784  0.55443116  0.17344622     0.13800
H443        H  0.64006738  0.57341071  0.19172516     0.16400
C444        C  0.68332383  0.52810911  0.17096414    -0.31200
H445        H  0.70198522  0.52153656  0.16170432     0.16400
H446        H  0.69363187  0.46293017  0.24124313     0.16400
H447        H  0.57167421  0.48527494  0.20244172     0.16500
H448        H  0.64143114  0.52465038  0.26925645     0.16400
N449        N  0.41818269  0.17435577  0.74801199    -0.01300
C450        C  0.43939448  0.15926596  0.73969421    -0.12000
C451        C  0.43912684  0.13544042  0.75498622    -0.07600
C452        C  0.41727659  0.13602203  0.77249191    -0.08200
C453        C  0.40537502  0.16082258  0.76787998    -0.12100
N454        N  0.67617615  0.14158154  0.75520251    -0.01300
C455        C  0.68974617  0.12675811  0.77414547    -0.12000
C456        C  0.67938168  0.10052213  0.77602384    -0.07600
C457        C  0.65922651  0.09936652  0.75614939    -0.08200
C458        C  0.65781295  0.12479607  0.74379550    -0.12100
N459        N  0.63948800  0.82120774  0.74273405    -0.01300
C460        C  0.65456651  0.83790854  0.75824449    -0.12000
C461        C  0.64139261  0.86185399  0.76290088    -0.07600
C462        C  0.61760861  0.85971134  0.74766870    -0.08200
C463        C  0.61623669  0.83391778  0.73570124    -0.12100
N464        N  0.37450822  0.85420595  0.76993472    -0.01300
C465        C  0.39637669  0.86758221  0.76070851    -0.12000
C466        C  0.39807849  0.89326871  0.77338376    -0.07600
C467        C  0.37666232  0.89626814  0.79130880    -0.08200
C468        C  0.36303658  0.87156040  0.78843842    -0.12100
C469        C  0.49158480  0.76358853  0.63270391     0.30300
C470        C  0.53368970  0.77977480  0.66624632     0.30300
C471        C  0.48560949  0.78823857  0.65153258    -0.05900
C472        C  0.50165302  0.74203060  0.65407471    -0.06600
C473        C  0.51791355  0.77245294  0.61912624    -0.06500
C474        C  0.50708544  0.79646833  0.66823379    -0.05900
C475        C  0.52297210  0.75061605  0.67099212    -0.06600
C476        C  0.53945300  0.77950980  0.63582311    -0.06500
C477        C  0.49613389  0.81175784  0.68909065    -0.31900
N478        N  0.46895521  0.81361548  0.68574422     0.14600
C479        C  0.46230918  0.79806016  0.66384652    -0.31900
H480        H  0.44192739  0.79227601  0.65852851     0.16500
C481        C  0.52677872  0.73082287  0.69036002    -0.30900
N482        N  0.50941236  0.70998202  0.68628390     0.13300
C483        C  0.49348019  0.71701102  0.66452522    -0.30900
C484        C  0.56259126  0.77481806  0.62076814    -0.31200
N485        N  0.55545071  0.76788072  0.59493827     0.13800
H486        H  0.58279672  0.77351498  0.62909251     0.16400
C487        C  0.52818295  0.76701759  0.59392106    -0.31200
H488        H  0.51669501  0.76013747  0.57652790     0.16400
H489        H  0.47633754  0.70536571  0.65766107     0.16400
H490        H  0.50709979  0.81951833  0.70649340     0.16500
H491        H  0.54083758  0.73181725  0.70686615     0.16400
C492        C  0.33830953  0.99017222  0.86296186     0.30300
C493        C  0.32255800  0.03219839  0.89848276     0.30300
C494        C  0.35560491  0.01675494  0.86290718    -0.05900
C495        C  0.30939572  0.00243528  0.85856339    -0.06600
C496        C  0.33685385  0.98309417  0.89357021    -0.06500
C497        C  0.34734640  0.03823073  0.88048103    -0.05900
C498        C  0.30198638  0.02378151  0.87623471    -0.06600
C499        C  0.33052650  0.00482788  0.91102971    -0.06500
C500        C  0.35561365  0.06204237  0.86802918    -0.31900
N501        N  0.37077680  0.05633458  0.84581900     0.14600
C502        C  0.36974147  0.02889010  0.84204245    -0.31900
H503        H  0.37704955  0.01841151  0.82422876     0.16500
C504        C  0.27720522  0.03364979  0.86766038    -0.30900
N505        N  0.26854268  0.01842129  0.84651327     0.13300
C506        C  0.28734503  0.99891575  0.84130304    -0.30900
C507        C  0.32243889  0.99426843  0.93517590    -0.31200
N508        N  0.32076477  0.96710308  0.93293754     0.13800
H509        H  0.31420615  0.00575320  0.95195877     0.16400
C510        C  0.32875729  0.95989595  0.90754704    -0.31200
H511        H  0.32630300  0.93982340  0.89885583     0.16400
H512        H  0.28420938  0.98319924  0.82636952     0.16400
H513        H  0.34826731  0.08213789  0.87315115     0.16500
H514        H  0.26631350  0.05092621  0.87587315     0.16400
C515        C  0.71524988  0.01320881  0.85241241     0.30300
C516        C  0.72889750  0.97198423  0.88819058     0.30300
C517        C  0.69896087  0.98629439  0.84970967    -0.05900
C518        C  0.74490368  0.00279689  0.85165062    -0.06600
C519        C  0.71268437  0.02016620  0.88316882    -0.06500
C520        C  0.70604599  0.96528303  0.86774985    -0.05900
C521        C  0.75118863  0.98113868  0.86874014    -0.06600
C522        C  0.71868259  0.99876264  0.90082442    -0.06500
C523        C  0.69696285  0.94132442  0.85593422    -0.31900
N524        N  0.68317618  0.94707305  0.83279859     0.14600
C525        C  0.68460354  0.97428867  0.82855486    -0.31900
H526        H  0.67761277  0.98428277  0.81030607     0.16500
C527        C  0.77672813  0.97201388  0.86216649    -0.30900
N528        N  0.78722426  0.98863012  0.84312599     0.13300
C529        C  0.76791736  0.00761261  0.83682763    -0.30900
C530        C  0.72241956  0.00949525  0.92637657    -0.31200
N531        N  0.72121673  0.03690247  0.92519461     0.13800
H532        H  0.72882827  0.99829183  0.94413113     0.16400
C533        C  0.71632444  0.04369834  0.89883938    -0.31200
H534        H  0.71809945  0.06410335  0.89104242     0.16400
H535        H  0.77013064  0.02330626  0.82180304     0.16400
H536        H  0.70203599  0.92087373  0.86224811     0.16500
H537        H  0.78610445  0.95365619  0.86975442     0.16400
C538        C  0.51128422  0.18793766  0.64706253     0.30300
C539        C  0.54990911  0.20794876  0.61193940     0.30300
C540        C  0.50540667  0.18334455  0.61618647    -0.05900
C541        C  0.51661679  0.21842618  0.64805838    -0.06600
C542        C  0.54043270  0.17580223  0.64946186    -0.06500
C543        C  0.52532468  0.19380528  0.59878624    -0.05900
C544        C  0.53619711  0.22896534  0.63108149    -0.06600
C545        C  0.55997395  0.18689400  0.63271431    -0.06500
C546        C  0.51275830  0.20022006  0.57468248    -0.31900
N547        N  0.48622644  0.19423924  0.57585817     0.14600
C548        C  0.48176669  0.18330226  0.60061352    -0.31900
H549        H  0.46199792  0.17813142  0.60755353     0.16500
C550        C  0.53876295  0.25602932  0.63880287    -0.30900
N551        N  0.52049441  0.26190384  0.65852781     0.13300
C552        C  0.50664275  0.23904041  0.66366672    -0.30900
C553        C  0.58490481  0.17790379  0.64210988    -0.31200
N554        N  0.58103199  0.16019163  0.66267385     0.13800
H555        H  0.60432199  0.18530048  0.63577877     0.16400
C556        C  0.55408188  0.15803944  0.66649180    -0.31200
H557        H  0.54541558  0.14542134  0.68193173     0.16400
H558        H  0.48996263  0.23734267  0.67730599     0.16400
H559        H  0.52166128  0.21224236  0.55886642     0.16500
H560        H  0.55348718  0.27025539  0.63155403     0.16400
O561        O  0.84505230  0.76206810  0.75341978    -0.80600
O562        O  0.79300706  0.82097570  0.85031344    -0.65200
O563        O  0.82478371  0.80364583  0.78347068    -1.11800
C564        C  0.90078923  0.78680221  0.84083811     1.06300
O565        O  0.82823437  0.84653650  0.85733611    -0.78500
O566        O  0.87780430  0.84616099  0.83763879    -0.66000
Ni567      Ni  0.80985238  0.77561015  0.76181895     1.34900
C568        C  0.87592691  0.85027780  0.81249009     0.85100
O569        O  0.77560281  0.82177092  0.79945071    -0.79000
O570        O  0.77333494  0.78761352  0.76895272    -0.89300
C571        C  0.80495163  0.83901297  0.86398945     0.84600
O572        O  0.81084971  0.75049258  0.79030831    -0.67500
O573        O  0.88769100  0.79707251  0.86054419    -0.86800
C574        C  0.80321277  0.75361599  0.81436554     0.85500
C575        C  0.76302846  0.80761656  0.78199318     1.07000
H576        H  0.83963569  0.78184388  0.84031751     0.38800
O577        O  0.84137381  0.79959983  0.83236307    -1.09400
O578        O  0.86659659  0.83298501  0.79614812    -0.66100
Ni579      Ni  0.85912272  0.79560664  0.79937304     1.26300
O580        O  0.79389790  0.77604950  0.82278048    -0.66300
O581        O  0.89303127  0.78784294  0.81616867    -0.78600
C582        C  0.86484410  0.77705536  0.74794030     0.84900
O583        O  0.87522215  0.79251816  0.76538528    -0.65800
Ni584      Ni  0.85773430  0.82160767  0.85916337     1.27400
Ni585      Ni  0.80799431  0.81147696  0.81663947     1.26100
H586        H  0.82525396  0.82004385  0.77283187     0.39400
O587        O  0.91223396  0.18626890  0.84624998    -0.80600
O588        O  0.79983949  0.18055418  0.82203177    -0.65200
O589        O  0.86366704  0.18852385  0.86331768    -1.11800
C590        C  0.87262526  0.09468651  0.84077671     1.06300
O591        O  0.79081068  0.14718104  0.84971549    -0.78500
O592        O  0.82247947  0.11795452  0.88163092    -0.66000
Ni593      Ni  0.88846934  0.21504503  0.85405153     1.34900
C594        C  0.83598911  0.13063992  0.89940816     0.85100
O595        O  0.82333133  0.22411154  0.84642717    -0.79000
O596        O  0.86253129  0.24280456  0.86081963    -0.89300
C597        C  0.78361288  0.16298108  0.83079182     0.84600
O598        O  0.88346061  0.21955591  0.81630598    -0.67500
O599        O  0.84706077  0.09514492  0.83705942    -0.86800
C600        C  0.86786426  0.20846644  0.79936981     0.85500
C601        C  0.83725781  0.24426686  0.85523567     1.07000
H602        H  0.85021020  0.14630919  0.81954186     0.38800
O603        O  0.84414607  0.14901787  0.83787169    -1.09400
O604        O  0.85760824  0.14357058  0.89402240    -0.66100
Ni605      Ni  0.87577905  0.15131276  0.85979632     1.26300
O606        O  0.84859413  0.19336224  0.80664360    -0.66300
O607        O  0.88600933  0.11348094  0.85309583    -0.78600
C608        C  0.92334514  0.17634288  0.86683610     0.84900
O609        O  0.90986229  0.15833371  0.87929060    -0.65800
Ni610      Ni  0.81913538  0.12127941  0.84361256     1.27400
Ni611      Ni  0.83250551  0.18609446  0.84162935     1.26100
H612        H  0.85825310  0.19200600  0.88174694     0.39400
N613        N  0.88673873  0.97721025  0.78555839    -0.01300
C614        C  0.90189269  0.99911680  0.78033894    -0.12000
C615        C  0.92190383  0.99180786  0.76202829    -0.07600
C616        C  0.91973237  0.96409728  0.75680144    -0.08200
C617        C  0.89787720  0.95587365  0.77207534    -0.12100
N618        N  0.04006260  0.22721048  0.88723207    -0.01300
C619        C  0.01792876  0.23703580  0.89965567    -0.12000
C620        C  0.02502239  0.25904625  0.91668368    -0.07600
C621        C  0.05365685  0.26048783  0.91628867    -0.08200
C622        C  0.06131688  0.24068771  0.89763025    -0.12100
O623        O  0.21762422  0.24086457  0.76656448    -0.80600
O624        O  0.27320768  0.17953094  0.86650838    -0.65200
O625        O  0.23810419  0.19945692  0.79979405    -1.11800
C626        C  0.16440003  0.20565432  0.86099873     1.06300
O627        O  0.24159582  0.15005233  0.86300286    -0.78500
O628        O  0.19093653  0.14807797  0.84636060    -0.66000
Ni629      Ni  0.25254451  0.22729467  0.77782222     1.34900
C630        C  0.18843657  0.14894549  0.82099645     0.85100
O631        O  0.28918486  0.18276160  0.81554305    -0.79000
O632        O  0.28953350  0.21642780  0.78524197    -0.89300
C633        C  0.26131023  0.15919482  0.87624754     0.84600
O634        O  0.25199729  0.25265212  0.80641498    -0.67500
O635        O  0.17848591  0.19108588  0.87728557    -0.86800
C636        C  0.26101312  0.25062032  0.83036465     0.85500
C637        C  0.30048346  0.19637713  0.79748107     1.07000
H638        H  0.22423564  0.21445227  0.85979822     0.38800
O639        O  0.22319098  0.19809438  0.84893305    -1.09400
O640        O  0.19484516  0.16945673  0.80736302    -0.66100
Ni641      Ni  0.20413419  0.20593513  0.81718850     1.26300
O642        O  0.26773899  0.22791589  0.84114232    -0.66300
O643        O  0.17113419  0.21110093  0.83666145    -0.78600
C644        C  0.19336580  0.23297799  0.76850380     0.84900
O645        O  0.18573254  0.21541291  0.78516409    -0.65800
Ni646      Ni  0.21010866  0.17029081  0.87096045     1.27400
Ni647      Ni  0.25685671  0.19071802  0.83276434     1.26100
H648        H  0.23734140  0.18320847  0.78876911     0.39400
N649        N  0.16725626  0.02461390  0.79088705    -0.01300
C650        C  0.15469561  0.00215337  0.78175296    -0.12000
C651        C  0.13288862  0.00903858  0.76502809    -0.07600
C652        C  0.13166407  0.03740606  0.76508176    -0.08200
C653        C  0.15348959  0.04605776  0.78073177    -0.12100
O654        O  0.25020009  0.78457523  0.83412331    -0.80600
O655        O  0.20077871  0.89091381  0.83608323    -0.65200
O656        O  0.20958616  0.81568546  0.84899206    -1.11800
C657        C  0.18137040  0.81062965  0.75855686     1.06300
O658        O  0.15965631  0.88048478  0.82374457    -0.78500
O659        O  0.14159070  0.83057880  0.81229645    -0.66000
Ni660      Ni  0.24140195  0.80308691  0.86623699     1.34900
C661        C  0.14570602  0.80606338  0.81896514     0.85100
O662        O  0.21700963  0.86257268  0.87968967    -0.79000
O663        O  0.23278792  0.82324846  0.89755806    -0.89300
C664        C  0.17774395  0.89813307  0.82746486     0.84600
O665        O  0.26622038  0.83005099  0.85626790    -0.67500
O666        O  0.16694326  0.83144848  0.76435007    -0.86800
C667        C  0.26390486  0.84833421  0.83861527     0.85500
C668        C  0.22693923  0.84846433  0.89905490     1.07000
H669        H  0.21015498  0.85027720  0.79527356     0.38800
O670        O  0.19705245  0.84319049  0.80760860    -1.09400
O671        O  0.16868280  0.79479740  0.81908461    -0.66100
Ni672      Ni  0.20448102  0.80558948  0.81164826     1.26300
O673        O  0.24155774  0.85804787  0.83091249    -0.66300
O674        O  0.19799529  0.79850101  0.77441266    -0.78600
C675        C  0.23602145  0.76401849  0.83022548     0.84900
O676        O  0.21385939  0.76780937  0.81776147    -0.65800
Ni677      Ni  0.16361264  0.85565984  0.79423875     1.27400
Ni678      Ni  0.20602791  0.85347022  0.84365375     1.26100
H679        H  0.19445351  0.80968783  0.85950382     0.39400
N680        N  0.02544633  0.75454029  0.83072936    -0.01300
C681        C  0.00666435  0.74228764  0.84562766    -0.12000
C682        C  0.01885209  0.72715859  0.86569282    -0.07600
C683        C  0.04630842  0.72966252  0.86274599    -0.08200
C684        C  0.04960634  0.74783600  0.84177116    -0.12100
N685        N  0.23251857  0.87750062  0.02084709    -0.01300
C686        C  0.24137621  0.88684165  0.04481049    -0.12000
C687        C  0.25941578  0.90805969  0.04198046    -0.07600
C688        C  0.26246488  0.91112524  0.01412459    -0.08200
C689        C  0.24484555  0.89270036  0.00231601    -0.12100
O690        O  0.17559385  0.81646631  0.26731630    -0.80600
O691        O  0.18622352  0.84247811  0.15337474    -0.65200
O692        O  0.18257093  0.80080973  0.21620315    -1.11800
C693        C  0.27736960  0.81546112  0.22012472     1.06300
O694        O  0.21594838  0.81132257  0.14336019    -0.78500
O695        O  0.24122187  0.77538667  0.17410878    -0.66000
Ni696      Ni  0.15237085  0.80398917  0.23864113     1.34900
C697        C  0.23618671  0.76173815  0.19501018     0.85100
O698        O  0.14601998  0.81487831  0.17488233    -0.79000
O699        O  0.12917147  0.79123305  0.20944134    -0.89300
C700        C  0.20351204  0.83303693  0.13735830     0.84600
O701        O  0.14143023  0.84081038  0.23143057    -0.67500
O702        O  0.27418053  0.81482598  0.19443364    -0.86800
C703        C  0.15300109  0.85980658  0.21891375     0.85500
C704        C  0.12834623  0.79915049  0.18476855     1.07000
H705        H  0.22380602  0.84578930  0.19793939     0.38800
O706        O  0.22028249  0.82674053  0.19479568    -1.09400
O707        O  0.22901210  0.77249365  0.21713246    -0.66100
Ni708      Ni  0.21911748  0.80880172  0.22819726     1.26300
O709        O  0.17286363  0.85540907  0.20326806    -0.66300
O710        O  0.25726161  0.81558739  0.23659102    -0.78600
C711        C  0.19390543  0.80077321  0.27672059     0.84900
O712        O  0.21402049  0.79355635  0.26264096    -0.65800
Ni713      Ni  0.24482182  0.81344125  0.16887604     1.27400
Ni714      Ni  0.18290008  0.82187608  0.18497371     1.26100
H715        H  0.18220090  0.78220879  0.20998003     0.39400
N716        N  0.01439540  0.77932753  0.13061401    -0.01300
C717        C  0.03691624  0.77138408  0.11720835    -0.12000
C718        C  0.03047775  0.75935206  0.09179508    -0.07600
C719        C  0.00145819  0.75991685  0.09024733    -0.08200
C720        C  0.99304345  0.77268786  0.11450013    -0.12100
O721        O  0.88077014  0.86799848  0.19964271    -0.80600
O722        O  0.82613078  0.78629487  0.12786650    -0.65200
O723        O  0.83905516  0.84622020  0.17322439    -1.11800
C724        C  0.83678122  0.77856847  0.24161591     1.06300
O725        O  0.79196307  0.77806880  0.15431724    -0.78500
O726        O  0.78196133  0.79725390  0.20252938    -0.66000
Ni727      Ni  0.86546071  0.87249169  0.16424904     1.34900
C728        C  0.78373373  0.82181988  0.20986478     0.85100
O729        O  0.82911467  0.83873226  0.11901065    -0.79000
O730        O  0.84942018  0.87843008  0.12874226    -0.89300
C731        C  0.80499881  0.77344462  0.13286984     0.84600
O732        O  0.89244301  0.84823839  0.14990474    -0.67500
O733        O  0.82186359  0.76476922  0.22540632    -0.86800
C734        C  0.89176592  0.82340182  0.14273953     0.85500
C735        C  0.83479466  0.86320575  0.11360764     1.07000
H736        H  0.85278700  0.78413893  0.18096351     0.38800
O737        O  0.83659346  0.79519002  0.18174642    -1.09400
O738        O  0.80612186  0.83357511  0.21287372    -0.66100
Ni739      Ni  0.84304393  0.82443615  0.20541052     1.26300
O740        O  0.87042208  0.80945793  0.14254722    -0.66300
O741        O  0.84592035  0.80198481  0.23629241    -0.78600
C742        C  0.86588012  0.87226091  0.22007959     0.84900
O743        O  0.85029734  0.85405998  0.22776918    -0.65800
Ni744      Ni  0.80755515  0.77163831  0.18949651     1.27400
Ni745      Ni  0.83319861  0.81664116  0.14985441     1.26100
H746        H  0.82224075  0.85628417  0.17397199     0.39400
N747        N  0.78958645  0.86341173  0.99131687    -0.01300
C748        C  0.78374270  0.88119696  0.01123050    -0.12000
C749        C  0.76609661  0.90119310  0.00182390    -0.07600
C750        C  0.76022459  0.89517148  0.97500119    -0.08200
C751        C  0.77505896  0.87163238  0.96942161    -0.12100
O752        O  0.21611746  0.16984554  0.13946503    -0.80600
O753        O  0.19248487  0.20689896  0.25178422    -0.65200
O754        O  0.20678896  0.15878036  0.19221151    -1.11800
C755        C  0.11633021  0.18017024  0.17055659     1.06300
O756        O  0.15692902  0.18207970  0.26137564    -0.78500
O757        O  0.13513133  0.14295479  0.22853855    -0.66000
Ni758      Ni  0.23778526  0.16370141  0.17081649     1.34900
C759        C  0.14419491  0.12367264  0.21392428     0.85100
O760        O  0.23681145  0.17703915  0.23632228    -0.79000
O761        O  0.25945045  0.15663588  0.20202464    -0.89300
C762        C  0.17401462  0.20019770  0.26824723     0.84600
O763        O  0.24351731  0.20221000  0.17333428    -0.67500
O764        O  0.11347457  0.18361172  0.19604969    -0.86800
C765        C  0.23069871  0.22184486  0.18401037     0.85500
C766        C  0.25601374  0.16214708  0.22700147     1.07000
H767        H  0.16437318  0.20496663  0.19779544     0.38800
O768        O  0.16627985  0.18688871  0.20518123    -1.09400
O769        O  0.15868496  0.12852539  0.19283890    -0.66100
Ni770      Ni  0.17220036  0.16248174  0.17516720     1.26300
O771        O  0.21274882  0.21724090  0.20198790    -0.66300
O772        O  0.13723224  0.16968902  0.15943477    -0.78600
C773        C  0.20347925  0.14971565  0.12978463     0.84900
O774        O  0.18308890  0.14105737  0.14306943    -0.65800
Ni775      Ni  0.13612399  0.18197960  0.22779511     1.27400
Ni776      Ni  0.20131048  0.18379374  0.22118171     1.26100
H777        H  0.20797894  0.14074820  0.19978093     0.39400
N778        N  0.99837267  0.21756749  0.13997123    -0.01300
C779        C  0.01973611  0.22435115  0.12478815    -0.12000
C780        C  0.01241235  0.24207109  0.10352226    -0.07600
C781        C  0.98377707  0.24510638  0.10468760    -0.08200
C782        C  0.97675273  0.23021420  0.12803906    -0.12100
N783        N  0.12364021  0.98990720  0.23927522    -0.01300
C784        C  0.10847448  0.01188556  0.24610427    -0.12000
C785        C  0.08615884  0.00339352  0.26224294    -0.07600
C786        C  0.08776720  0.97289184  0.26427766    -0.08200
C787        C  0.11159054  0.96703174  0.24872283    -0.12100
N788        N  0.24946382  0.13211769  0.00659658    -0.01300
C789        C  0.25167012  0.11438165  0.02721909    -0.12000
C790        C  0.26796929  0.09223325  0.01917867    -0.07600
C791        C  0.27567169  0.09635655  0.99192263    -0.08200
C792        C  0.26342686  0.12125041  0.98550625    -0.12100
N793        N  0.84574541  0.00285175  0.25620841    -0.01300
C794        C  0.86179141  0.02067786  0.26938211    -0.12000
C795        C  0.88282500  0.00703894  0.28267557    -0.07600
C796        C  0.87864430  0.97963719  0.27761144    -0.08200
C797        C  0.85614252  0.97799156  0.26085044    -0.12100
O798        O  0.75322144  0.19234342  0.24713881    -0.80600
O799        O  0.86124549  0.22414454  0.18827194    -0.65200
O800        O  0.78947082  0.20507509  0.20672105    -1.11800
C801        C  0.83447558  0.12101446  0.22071564     1.06300
O802        O  0.85975399  0.18986480  0.16018228    -0.78500
O803        O  0.83194880  0.14371117  0.16207799    -0.66000
Ni804      Ni  0.77373052  0.22358388  0.23651435     1.34900
C805        C  0.80791405  0.15015158  0.15637053     0.85100
O806        O  0.81462310  0.25062337  0.19000015    -0.79000
O807        O  0.79080613  0.25770771  0.22767950    -0.89300
C808        C  0.87087630  0.21147951  0.16813452     0.84600
O809        O  0.80224625  0.21281752  0.26051094    -0.67500
O810        O  0.85470472  0.13211039  0.20967648    -0.86800
C811        C  0.82691835  0.21865625  0.25771242     0.85500
C812        C  0.80139194  0.26576234  0.20574074     1.07000
H813        H  0.84294609  0.17944361  0.22571388     0.38800
O814        O  0.83424060  0.17978675  0.20817991    -1.09400
O815        O  0.79270266  0.16149093  0.17385775    -0.66100
Ni816      Ni  0.79856163  0.16778075  0.21244816     1.26300
O817        O  0.83610619  0.22673326  0.23517971    -0.66300
O818        O  0.81026374  0.13061942  0.21925787    -0.78600
C819        C  0.74652267  0.17037774  0.23515038     0.84900
O820        O  0.76160362  0.15831024  0.21801993    -0.65800
Ni821      Ni  0.85733267  0.16077220  0.18520001     1.27400
Ni822      Ni  0.82543321  0.21558320  0.19876386     1.26100
H823        H  0.77803580  0.20728046  0.19090875     0.39400
N824        N  0.78453456  0.14442003  0.02328315    -0.01300
C825        C  0.77901394  0.12779808  0.00205269    -0.12000
C826        C  0.76171345  0.10696143  0.01011087    -0.07600
C827        C  0.75732728  0.11045154  0.03807285    -0.08200
C828        C  0.77198253  0.13381201  0.04524815    -0.12100
N829        N  0.17943566  0.72671748  0.38517611    -0.01300
C830        C  0.16401383  0.74506937  0.37172326    -0.12000
C831        C  0.14056587  0.75072106  0.38559651    -0.07600
C832        C  0.14294660  0.73497534  0.40893112    -0.08200
C833        C  0.16710571  0.72078770  0.40833739    -0.12100
N834        N  0.17011811  0.76239647  0.63860797    -0.01300
C835        C  0.15510099  0.75371438  0.61733511    -0.12000
C836        C  0.13016389  0.76751211  0.61703683    -0.07600
C837        C  0.13021308  0.78627200  0.63836688    -0.08200
C838        C  0.15477871  0.78122693  0.65158411    -0.12100
N839        N  0.85360612  0.75536648  0.62134272    -0.01300
C840        C  0.86391000  0.75270323  0.59641912    -0.12000
C841        C  0.88685811  0.76826137  0.59492979    -0.07600
C842        C  0.88982531  0.78228988  0.61897801    -0.08200
C843        C  0.86985072  0.77242165  0.63529751    -0.12100
N844        N  0.85789678  0.72229215  0.36001630    -0.01300
C845        C  0.87377820  0.73930463  0.34504621    -0.12000
C846        C  0.89928089  0.74403492  0.35670914    -0.07600
C847        C  0.89781282  0.72720376  0.38048166    -0.08200
C848        C  0.87186324  0.71396519  0.38263192    -0.12100
C849        C  0.81246540  0.59289910  0.50785977     0.30300
C850        C  0.82657983  0.63199675  0.46793601     0.30300
C851        C  0.83413532  0.58486507  0.48728495    -0.05900
C852        C  0.78920234  0.60462117  0.48964274    -0.06600
C853        C  0.82426476  0.62030979  0.51824969    -0.06500
C854        C  0.84072904  0.60398539  0.46698830    -0.05900
C855        C  0.79611473  0.62418861  0.46949358    -0.06600
C856        C  0.83106135  0.63964763  0.49794393    -0.06500
C857        C  0.84663789  0.58870915  0.44445056    -0.31900
N858        N  0.84370479  0.56202035  0.44997360     0.14600
C859        C  0.83820723  0.55957920  0.47651440    -0.31900
H860        H  0.83045520  0.54112535  0.48530124     0.16500
C861        C  0.77385629  0.64146842  0.46728870    -0.30900
N862        N  0.75405928  0.63404639  0.48464260     0.13300
C863        C  0.76391054  0.61246259  0.49873540    -0.30900
C864        C  0.83101508  0.66449897  0.51027438    -0.31200
N865        N  0.82767471  0.66129053  0.53697252     0.13800
H866        H  0.83273228  0.68411182  0.50069852     0.16400
C867        C  0.82290472  0.63471273  0.54234738    -0.31200
H868        H  0.81823334  0.62670269  0.56207971     0.16400
H869        H  0.75580250  0.60560693  0.51762607     0.16400
H870        H  0.84686271  0.59666559  0.42413673     0.16500
H871        H  0.77364404  0.66002517  0.45565900     0.16400
C872        C  0.01928522  0.87151920  0.29959544     0.30300
C873        C  0.98486989  0.82677949  0.31341370     0.30300
C874        C  0.98952241  0.87727602  0.30593239    -0.05900
C875        C  0.01477822  0.84898042  0.27734100    -0.06600
C876        C  0.02838241  0.85284552  0.32391590    -0.06500
C877        C  0.97261737  0.85558518  0.31345893    -0.05900
C878        C  0.99762272  0.82664053  0.28405465    -0.06600
C879        C  0.01097081  0.83080362  0.33059743    -0.06500
C880        C  0.94624868  0.86416095  0.30911467    -0.31900
N881        N  0.94687822  0.88927561  0.29835750     0.14600
C882        C  0.97263580  0.89635988  0.29473486    -0.31900
H883        H  0.97852625  0.91366461  0.28289360     0.16500
C884        C  0.99542028  0.81120500  0.26042213    -0.30900
N885        N  0.01045421  0.82233201  0.24036027     0.13300
C886        C  0.02190949  0.84549237  0.25038763    -0.30900
C887        C  0.02687139  0.81105682  0.34288533    -0.31200
N888        N  0.05285504  0.81930078  0.34438464     0.13800
H889        H  0.02021495  0.79090456  0.34820874     0.16400
C890        C  0.05410370  0.84426627  0.33256553    -0.31200
H891        H  0.07281604  0.85445249  0.32831815     0.16400
H892        H  0.03432833  0.85907309  0.23881505     0.16400
H893        H  0.92816225  0.85230239  0.31157400     0.16500
H894        H  0.98284908  0.79368167  0.25734411     0.16400
C895        C  0.00355938  0.89392739  0.70466957     0.30300
C896        C  0.04449404  0.86173799  0.68230895     0.30300
C897        C  0.03050356  0.90811604  0.69920815    -0.05900
C898        C  0.01226255  0.86845872  0.72043511    -0.06600
C899        C  0.99722466  0.88117541  0.67689438    -0.06500
C900        C  0.05174098  0.89200630  0.68868839    -0.05900
C901        C  0.03370686  0.85330281  0.71005473    -0.06600
C902        C  0.01808741  0.86514636  0.66510736    -0.06500
C903        C  0.07521645  0.90566041  0.69637942    -0.31900
N904        N  0.06855752  0.92972046  0.70838478     0.14600
C905        C  0.04144416  0.93133075  0.71009668    -0.31900
H906        H  0.03072572  0.94692769  0.72127684     0.16500
C907        C  0.03879775  0.83262099  0.72793324    -0.30900
N908        N  0.01989452  0.83342177  0.74761178     0.13300
C909        C  0.00321323  0.85496698  0.74279113    -0.30900
C910        C  0.00536110  0.84702752  0.64768876    -0.31200
N911        N  0.97836132  0.85040902  0.64965829     0.13800
H912        H  0.01480244  0.83022775  0.63714073     0.16400
C913        C  0.97331893  0.87013313  0.66781521    -0.31200
H914        H  0.95374533  0.87279517  0.67698241     0.16400
H915        H  0.98514312  0.85999716  0.75376951     0.16400
H916        H  0.09557310  0.89760328  0.69593064     0.16500
H917        H  0.05469118  0.81749634  0.72629808     0.16400
C918        C  0.21978483  0.64330477  0.48342477     0.30300
C919        C  0.23685481  0.61176138  0.52599987     0.30300
C920        C  0.22259734  0.61253190  0.47718481    -0.05900
C921        C  0.24855191  0.64931462  0.49440479    -0.06600
C922        C  0.20272942  0.64506677  0.50936267    -0.06500
C923        C  0.23024119  0.59649766  0.49946495    -0.05900
C924        C  0.25713751  0.63376009  0.51658104    -0.06600
C925        C  0.21173825  0.62941428  0.53134025    -0.06500
C926        C  0.24323642  0.57363941  0.48950733    -0.31900
N927        N  0.24558160  0.57542034  0.46241119     0.14600
C928        C  0.23359690  0.59919778  0.45471357    -0.31900
H929        H  0.23513689  0.60771243  0.43464739     0.16500
C930        C  0.28164811  0.64456077  0.52503888    -0.30900
N931        N  0.28860960  0.66490456  0.50795072     0.13300
C932        C  0.26914754  0.66698026  0.48856882    -0.30900
C933        C  0.20475170  0.64399030  0.55444311    -0.31200
N934        N  0.19037886  0.66647251  0.54745951     0.13800
H935        H  0.21212381  0.63990663  0.57472371     0.16400
C936        C  0.18978996  0.66769815  0.52016894    -0.31200
H937        H  0.18300459  0.68536913  0.50895160     0.16400
H938        H  0.27023197  0.68019835  0.47123530     0.16400
H939        H  0.25319680  0.55821394  0.50165431     0.16500
H940        H  0.29315632  0.63887453  0.54287695     0.16400
N941        N  0.37200505  0.27856465  0.49860569    -0.01300
C942        C  0.38561031  0.26780710  0.51998200    -0.12000
C943        C  0.40544699  0.24935667  0.51054172    -0.07600
C944        C  0.40376721  0.24946493  0.48213683    -0.08200
C945        C  0.38275424  0.26753204  0.47593968    -0.12100
N946        N  0.33438908  0.48797412  0.36427898    -0.01300
C947        C  0.32469104  0.50690423  0.38130142    -0.12000
C948        C  0.30401482  0.49749105  0.39677064    -0.07600
C949        C  0.30162881  0.47048212  0.38926331    -0.08200
C950        C  0.32073127  0.46537138  0.36963540    -0.12100
N951        N  0.52505642  0.34749251  0.29153860    -0.01300
C952        C  0.54377180  0.36456940  0.28204329    -0.12000
C953        C  0.53514566  0.37608043  0.25788083    -0.07600
C954        C  0.50956275  0.36629572  0.25281833    -0.08200
C955        C  0.50419266  0.34922541  0.27411110    -0.12100
O956        O  0.28494636  0.29030262  0.35426100    -0.80600
O957        O  0.39084755  0.30566118  0.30981673    -0.65200
O958        O  0.31622112  0.30908625  0.31459244    -1.11800
C959        C  0.31848651  0.22201034  0.28325529     1.06300
O960        O  0.39450410  0.27869530  0.27365972    -0.78500
O961        O  0.34436029  0.28729668  0.25367059    -0.66000
Ni962      Ni  0.29983237  0.32404777  0.34531823     1.34900
C963        C  0.31905659  0.29148667  0.25318491     0.85100
O964        O  0.35656686  0.34652424  0.32079545    -0.79000
O965        O  0.31523595  0.35747837  0.33685306    -0.89300
C966        C  0.40424205  0.29577478  0.29047961     0.84600
O967        O  0.32648733  0.31790278  0.37240039    -0.67500
O968        O  0.33086231  0.23484625  0.26503322    -0.86800
C969        C  0.34796615  0.30403799  0.37152357     0.85500
C970        C  0.33850947  0.36375022  0.32832772     1.07000
H971        H  0.35660156  0.25881869  0.31896491     0.38800
O972        O  0.34904089  0.27020672  0.30487513    -1.09400
O973        O  0.30340267  0.28074277  0.27040292    -0.66100
Ni974      Ni  0.31081554  0.27185430  0.30809702     1.26300
O975        O  0.35950479  0.29760588  0.34972360    -0.66300
O976        O  0.30723031  0.23426445  0.30250878    -0.78600
C977        C  0.26767409  0.28027925  0.33839342     0.84900
O978        O  0.27340237  0.27448043  0.31423999    -0.65800
Ni979      Ni  0.36186464  0.25773915  0.27090377     1.27400
Ni980      Ni  0.35361790  0.30797162  0.31282780     1.26100
H981        H  0.31019353  0.31980852  0.29938604     0.39400
O982        O  0.68449489  0.26439183  0.28199950    -0.80600
O983        O  0.75536306  0.34094651  0.35116911    -0.65200
O984        O  0.71218834  0.28403471  0.32599711    -1.11800
C985        C  0.64408310  0.35200878  0.33122843     1.06300
O986        O  0.72479107  0.34751889  0.38126029    -0.78500
O987        O  0.67338876  0.33163757  0.38686546    -0.66000
Ni988      Ni  0.72167452  0.26497356  0.29376784     1.34900
C989        C  0.66964574  0.30626894  0.38445589     0.85100
O990        O  0.76432734  0.29095100  0.33985568    -0.79000
O991        O  0.75966132  0.26305780  0.30406061    -0.89300
C992        C  0.74488255  0.35623454  0.36859539     0.84600
O993        O  0.72646416  0.29643118  0.27200052    -0.67500
O994        O  0.65908054  0.36672154  0.34626083    -0.86800
C995        C  0.73690724  0.31929142  0.27730210     0.85500
C996        C  0.77304271  0.27296649  0.32400272     1.07000
H997        H  0.70276479  0.34596055  0.31897651     0.38800
O998        O  0.70193118  0.33439432  0.33467879    -1.09400
O999        O  0.67406049  0.29365777  0.36257622    -0.66100
Ni1000     Ni  0.67976337  0.30506976  0.32606516     1.26300
O1001       O  0.74406069  0.32591234  0.30137871    -0.66300
O1002       O  0.64819596  0.32694319  0.32595522    -0.78600
C1003       C  0.66480615  0.25975253  0.29753644     0.84900
O1004       O  0.65910679  0.27496970  0.31716604    -0.65800
Ni1005     Ni  0.69180522  0.35700052  0.36436089     1.27400
Ni1006     Ni  0.73418374  0.31280127  0.33737134     1.26100
H1007       H  0.71182598  0.27076466  0.34033365     0.39400
O1008       O  0.36064520  0.63086158  0.38103658    -0.80600
O1009       O  0.33429025  0.73717288  0.33922340    -0.65200
O1010       O  0.32997776  0.66182973  0.34958407    -1.11800
C1011       C  0.39716145  0.65563661  0.28394146     1.06300
O1012       O  0.32800770  0.72284830  0.29872468    -0.78500
O1013       O  0.32979881  0.67690610  0.27366947    -0.66000
Ni1014     Ni  0.32690132  0.64841875  0.38516536     1.34900
C1015       C  0.32690177  0.65217351  0.27879209     0.85100
O1016       O  0.30354286  0.70707779  0.36955096    -0.79000
O1017       O  0.29317522  0.66703096  0.38835265    -0.89300
C1018       C  0.33645879  0.74120896  0.31436181     0.84600
O1019       O  0.34449472  0.67606839  0.40546302    -0.67500
O1020       O  0.38515128  0.67617496  0.27283520    -0.86800
C1021       C  0.35874946  0.69586021  0.39823987     0.85500
C1022       C  0.28736931  0.69139914  0.38135492     1.07000
H1023       H  0.37791230  0.69796693  0.32834205     0.38800
O1024       O  0.36123589  0.69027834  0.32165188    -1.09400
O1025       O  0.33877280  0.64056269  0.29863018    -0.66100
Ni1026     Ni  0.36146999  0.65325816  0.32878638     1.26300
O1027       O  0.35834750  0.70506544  0.37431257    -0.66300
O1028       O  0.39213917  0.64715462  0.30759591    -0.78600
C1029       C  0.36044041  0.61185572  0.36392337     0.84900
O1030       O  0.36231554  0.61683953  0.33912015    -0.65800
Ni1031     Ni  0.35669298  0.70082890  0.28540494     1.27400
Ni1032     Ni  0.33213244  0.69952456  0.34576732     1.26100
H1033       H  0.31417593  0.65614378  0.33953507     0.39400
O1034       O  0.38696018  0.36921274  0.66951255    -0.80600
O1035       O  0.27639708  0.30547016  0.65325356    -0.65200
O1036       O  0.33534438  0.34945470  0.67444264    -1.11800
C1037       C  0.35899719  0.26763096  0.71885389     1.06300
O1038       O  0.26996895  0.29973997  0.69718489    -0.78500
O1039       O  0.30465099  0.30470156  0.73836003    -0.66000
Ni1040     Ni  0.35606826  0.36489969  0.64629134     1.34900
C1041       C  0.31807626  0.32590590  0.74340323     0.85100
O1042       O  0.28943591  0.35692593  0.64332700    -0.79000
O1043       O  0.32643580  0.36342969  0.62141391    -0.89300
C1044       C  0.26101216  0.30197029  0.67318637     0.84600
O1045       O  0.36697204  0.32936946  0.63509221    -0.67500
O1046       O  0.33389938  0.26197257  0.71839482    -0.86800
C1047       C  0.35063338  0.31343063  0.62295604     0.85500
C1048       C  0.30353265  0.37188311  0.62859279     1.07000
H1049       H  0.33036847  0.28599990  0.66990302     0.38800
O1050       O  0.32330254  0.29972074  0.68201919    -1.09400
O1051       O  0.33602411  0.33453027  0.72747673    -0.66100
Ni1052     Ni  0.35235213  0.32085216  0.69445695     1.26300
O1053       O  0.32538897  0.31287743  0.62926462    -0.66300
O1054       O  0.36864977  0.29077262  0.71290993    -0.78600
C1055       C  0.39392189  0.36073241  0.69289068     0.84900
O1056       O  0.38150518  0.34235569  0.70519540    -0.65800
Ni1057     Ni  0.30231187  0.28122418  0.70755802     1.27400
Ni1058     Ni  0.30634105  0.32728045  0.66179474     1.26100
H1059       H  0.32858412  0.36363842  0.68623491     0.39400
N1060       N  0.51485433  0.61271228  0.26359797    -0.01300
C1061       C  0.49261971  0.60147482  0.25118825    -0.12000
C1062       C  0.49858691  0.57638277  0.23806988    -0.07600
C1063       C  0.52695905  0.57413404  0.24228442    -0.08200
C1064       C  0.53609825  0.59661634  0.25739964    -0.12100
N1065       N  0.65539956  0.69544675  0.49789152    -0.01300
C1066       C  0.64339557  0.70735814  0.51933289    -0.12000
C1067       C  0.62045526  0.72217891  0.51014861    -0.07600
C1068       C  0.61828755  0.71863582  0.48158981    -0.08200
C1069       C  0.64008228  0.70152095  0.47583371    -0.12100
N1070       N  0.75452363  0.48851079  0.34230929    -0.01300
C1071       C  0.76692778  0.50984548  0.35386765    -0.12000
C1072       C  0.78709290  0.50058483  0.37144485    -0.07600
C1073       C  0.78665230  0.47253725  0.37122277    -0.08200
C1074       C  0.76625534  0.46622408  0.35295921    -0.12100
O1075       O  0.69341250  0.68820589  0.36619672    -0.80600
O1076       O  0.72296155  0.69209305  0.25248011    -0.65200
O1077       O  0.68153682  0.69358185  0.31477341    -1.11800
C1078       C  0.70909528  0.60111981  0.31431174     1.06300
O1079       O  0.69591743  0.65958013  0.23762381    -0.78500
O1080       O  0.66650972  0.62337999  0.26604416    -0.66000
Ni1081     Ni  0.69026568  0.71851292  0.34281878     1.34900
C1082       C  0.64778574  0.63160159  0.28142652     0.85100
O1083       O  0.69784566  0.73220498  0.27792461    -0.79000
O1084       O  0.68777443  0.74949742  0.31893578    -0.89300
C1085       C  0.71179573  0.67931061  0.23333149     0.84600
O1086       O  0.72860097  0.71886529  0.34225863    -0.67500
O1087       O  0.71356359  0.60375525  0.28897891    -0.86800
C1088       C  0.74581122  0.71056872  0.32537856     0.85500
C1089       C  0.69131839  0.75193871  0.29344333     1.07000
H1090       H  0.72693591  0.65399611  0.29831985     0.38800
O1091       O  0.70870803  0.65676865  0.29174322    -1.09400
O1092       O  0.65279112  0.64616596  0.30240167    -0.66100
Ni1093     Ni  0.68627163  0.65519026  0.32191856     1.26300
O1094       O  0.73855693  0.70099124  0.30243431    -0.66300
O1095       O  0.69441569  0.61743869  0.32823908    -0.78600
C1096       C  0.67264354  0.67432773  0.37070611     0.84900
O1097       O  0.66503142  0.65670801  0.35365386    -0.65800
Ni1098     Ni  0.70418822  0.63157920  0.26351173     1.27400
Ni1099     Ni  0.70378044  0.69425588  0.28443009     1.26100
H1100       H  0.66313899  0.69706522  0.30901794     0.39400
N1101       N  0.65927785  0.26379851  0.50365400    -0.01300
C1102       C  0.64896139  0.25659845  0.52772526    -0.12000
C1103       C  0.62416928  0.24389870  0.52489866    -0.07600
C1104       C  0.61985190  0.24322600  0.49699966    -0.08200
C1105       C  0.64132784  0.25622192  0.48467852    -0.12100
N1106       N  0.75465771  0.48370742  0.61889172    -0.01300
C1107       C  0.76343120  0.50411423  0.60259649    -0.12000
C1108       C  0.77707874  0.49528682  0.57896061    -0.07600
C1109       C  0.77624449  0.46560803  0.58119383    -0.08200
C1110       C  0.76229353  0.46033933  0.60614014    -0.12100
N1111       N  0.51790908  0.36380660  0.71124198    -0.01300
C1112       C  0.50062271  0.37748405  0.72724967    -0.12000
C1113       C  0.51371442  0.38906919  0.74917298    -0.07600
C1114       C  0.54073732  0.38273418  0.74605184    -0.08200
C1115       C  0.54232116  0.36745140  0.72257234    -0.12100
O1116       O  0.65054547  0.30045444  0.70340429    -0.80600
O1117       O  0.76415988  0.27933898  0.71186389    -0.65200
O1118       O  0.69963988  0.31926177  0.71076393    -1.11800
C1119       C  0.70481617  0.29811722  0.61807510     1.06300
O1120       O  0.77650839  0.30900974  0.68154011    -0.78500
O1121       O  0.74904532  0.33903868  0.64595332    -0.66000
Ni1122     Ni  0.67179460  0.30981051  0.73422533     1.34900
C1123       C  0.73161871  0.35661028  0.65279543     0.85100
O1124       O  0.73461473  0.30246721  0.75044872    -0.79000
O1125       O  0.69455981  0.31929115  0.76424222    -0.89300
C1126       C  0.78215720  0.28948607  0.69722834     0.84600
O1127       O  0.67795706  0.27195760  0.74089634    -0.67500
O1128       O  0.73010854  0.29358572  0.62147066    -0.86800
C1129       C  0.69446075  0.25504049  0.73083401     0.85500
C1130       C  0.71979711  0.31462797  0.76777070     1.07000
H1131       H  0.72024420  0.27562562  0.67088220     0.38800
O1132       O  0.72526253  0.29420338  0.67465718    -1.09400
O1133       O  0.70997170  0.35029674  0.66523649    -0.66100
Ni1134     Ni  0.69345212  0.31493660  0.67289963     1.26300
O1135       O  0.71445596  0.26268239  0.71706097    -0.66300
O1136       O  0.68903239  0.30869756  0.63546506    -0.78600
C1137       C  0.64222672  0.32029236  0.68930208     0.84900
O1138       O  0.65898254  0.33232289  0.67430529    -0.65800
Ni1139     Ni  0.75366418  0.30125292  0.65135279     1.27400
Ni1140     Ni  0.73094800  0.29796180  0.71250779     1.26100
H1141       H  0.70439464  0.33794042  0.71443390     0.39400
N1142       N  0.29113307  0.50644094  0.63692293    -0.01300
C1143       C  0.28422353  0.53007736  0.62454761    -0.12000
C1144       C  0.27099601  0.52414650  0.59947945    -0.07600
C1145       C  0.26939278  0.49528661  0.59647020    -0.08200
C1146       C  0.28249161  0.48593838  0.62013388    -0.12100
N1147       N  0.52231914  0.60603039  0.74019817    -0.01300
C1148       C  0.54546652  0.59168332  0.74568523    -0.12000
C1149       C  0.54121295  0.56743392  0.76052311    -0.07600
C1150       C  0.51163889  0.56897799  0.76497028    -0.08200
C1151       C  0.50192738  0.59298749  0.75217940    -0.12100
N1152       N  0.38307216  0.73102609  0.51711352    -0.01300
C1153       C  0.40050608  0.73651164  0.49728848    -0.12000
C1154       C  0.42425387  0.74709235  0.50809448    -0.07600
C1155       C  0.42104579  0.74881197  0.53613409    -0.08200
C1156       C  0.39519556  0.73903939  0.54033752    -0.12100
O1157       O  0.31629887  0.69125003  0.76926074    -0.80600
O1158       O  0.34392921  0.72227008  0.65818744    -0.65200
O1159       O  0.31057955  0.68638903  0.71564059    -1.11800
C1160       C  0.39708101  0.63957487  0.72145709     1.06300
O1161       O  0.35368174  0.68088514  0.64493617    -0.78500
O1162       O  0.35635415  0.63328670  0.66793218    -0.66000
Ni1163     Ni  0.29252433  0.70650050  0.74252916     1.34900
C1164       C  0.33569403  0.62400595  0.67927625     0.85100
O1165       O  0.29297856  0.72497422  0.67786965    -0.79000
O1166       O  0.26791277  0.72138808  0.71552186    -0.89300
C1167       C  0.35410638  0.70617213  0.64104008     0.84600
O1168       O  0.31282698  0.73975862  0.74463012    -0.67500
O1169       O  0.40081640  0.64872825  0.69763422    -0.86800
C1170       C  0.33149852  0.74956617  0.73036683     0.85500
C1171       C  0.27050209  0.72757457  0.69047203     1.07000
H1172       H  0.37088651  0.69666149  0.70700434     0.38800
O1173       O  0.35810326  0.68471888  0.69821204    -1.09400
O1174       O  0.32700597  0.63466509  0.70144037    -0.66100
Ni1175     Ni  0.34156750  0.66411343  0.72533657     1.26300
O1176       O  0.33938144  0.73743830  0.70885679    -0.66300
O1177       O  0.37459580  0.64282778  0.73415952    -0.78600
C1178       C  0.31663631  0.66583634  0.77380143     0.84900
O1179       O  0.32352741  0.64883110  0.75550296    -0.65800
Ni1180     Ni  0.37712476  0.66541298  0.67132277     1.27400
Ni1181     Ni  0.32647236  0.70601923  0.68768122     1.26100
H1182       H  0.29716828  0.67474193  0.70743482     0.39400
O1183       O  0.64708591  0.64237932  0.68617604    -0.80600
O1184       O  0.75453089  0.67704175  0.64693862    -0.65200
O1185       O  0.70140698  0.63808494  0.68442495    -1.11800
C1186       C  0.69268598  0.72254053  0.72766023     1.06300
O1187       O  0.77102217  0.68510825  0.68759293    -0.78500
O1188       O  0.74841847  0.68855337  0.73696826    -0.66000
Ni1189     Ni  0.67249100  0.62178748  0.66560107     1.34900
C1190       C  0.73761919  0.66813441  0.74768970     0.85100
O1191       O  0.73565322  0.62622248  0.64235977    -0.79000
O1192       O  0.69763700  0.60111614  0.64455844    -0.89300
C1193       C  0.77283123  0.68665837  0.66215726     0.84600
O1194       O  0.66635724  0.64607032  0.63611276    -0.67500
O1195       O  0.71602298  0.72864215  0.71886136    -0.86800
C1196       C  0.68007675  0.66424201  0.62481431     0.85500
C1197       C  0.72189378  0.60505687  0.63697289     1.07000
H1198       H  0.70607324  0.69928202  0.67568800     0.38800
O1199       O  0.71657008  0.68662508  0.68646838    -1.09400
O1200       O  0.71810863  0.65539331  0.73620663    -0.66100
Ni1201     Ni  0.69214710  0.66737850  0.70809133     1.26300
O1202       O  0.70316476  0.67097717  0.63439728    -0.66300
O1203       O  0.68315432  0.69859810  0.72916278    -0.78600
C1204       C  0.64558482  0.63905119  0.71153217     0.84900
O1205       O  0.66519833  0.64677708  0.72632531    -0.65800
Ni1206     Ni  0.74375778  0.70701543  0.70353376     1.27400
Ni1207     Ni  0.72681819  0.65714490  0.66369975     1.26100
H1208       H  0.71078866  0.62415124  0.69465337     0.39400
O1209       O  0.04250002  0.24730544  0.54908173    -0.74100
O1210       O  0.99702059  0.22441088  0.49120294    -0.74100
O1211       O  0.04636049  0.24498286  0.49553952    -0.74200
O1212       O  0.99351893  0.22560976  0.54514604    -0.74200
O1213       O  0.97569025  0.26750425  0.54290506    -0.74200
O1214       O  0.03091668  0.28759918  0.49279956    -0.74100
O1215       O  0.98073583  0.26688535  0.48822901    -0.74100
O1216       O  0.02494436  0.28926499  0.54695108    -0.74200
Ni1217     Ni  0.02040573  0.23411868  0.52026576     1.25400
Ni1218     Ni  0.00225859  0.27938319  0.51751843     1.25400
C1219       C  0.04109637  0.27194149  0.55752268     0.88100
C1220       C  0.98171069  0.24223395  0.48012026     0.88000
C1221       C  0.04822632  0.26912154  0.48654630     0.88000
C1222       C  0.97664979  0.24348916  0.55296840     0.88200
O1223       O  0.98561325  0.76926769  0.51074178    -0.74100
O1224       O  0.04916392  0.74762225  0.47502241    -0.74100
O1225       O  0.99758128  0.75234829  0.46088403    -0.74200
O1226       O  0.03821058  0.76528613  0.52443528    -0.74200
O1227       O  0.03464943  0.72181147  0.53625127    -0.74200
O1228       O  0.98906760  0.70993017  0.47342236    -0.74100
O1229       O  0.04219331  0.70399116  0.48544956    -0.74100
O1230       O  0.98130837  0.72620821  0.52423763    -0.74200
Ni1231     Ni  0.01784629  0.76012313  0.49229079     1.25400
Ni1232     Ni  0.01153480  0.71382532  0.50533779     1.25400
C1233       C  0.97335161  0.75092352  0.52381410     0.88100
C1234       C  0.05589722  0.72251253  0.47447205     0.88000
C1235       C  0.98518263  0.73006162  0.45734346     0.88000
C1236       C  0.04449907  0.74565131  0.54013332     0.88200
O1237       O  0.78046272  0.52700425  0.04037835    -0.74100
O1238       O  0.79094562  0.47678377  0.98384961    -0.74100
O1239       O  0.78865858  0.53089394  0.98740702    -0.74200
O1240       O  0.78307261  0.47343540  0.03734176    -0.74200
O1241       O  0.73839129  0.47291531  0.03166484    -0.74200
O1242       O  0.74445059  0.52935261  0.97893647    -0.74100
O1243       O  0.74617840  0.47471347  0.97770347    -0.74100
O1244       O  0.73590870  0.52664353  0.03203495    -0.74200
Ni1245     Ni  0.78740734  0.50194071  0.01243007     1.25400
Ni1246     Ni  0.73957422  0.50069205  0.00469672     1.25400
C1247       C  0.75649137  0.53532714  0.04480482     0.88100
C1248       C  0.77011925  0.46757152  0.97171541     0.88000
C1249       C  0.76763497  0.53999346  0.97515620     0.88000
C1250       C  0.75979569  0.46524833  0.04434393     0.88200
O1251       O  0.49836673  0.97692157  0.78625118    -0.74100
O1252       O  0.56310869  0.01665039  0.77964673    -0.74100
O1253       O  0.51098679  0.02988402  0.78353863    -0.74200
O1254       O  0.55030393  0.96343637  0.78143053    -0.74200
O1255       O  0.54643316  0.96360443  0.73624471    -0.74200
O1256       O  0.50634042  0.02768800  0.73878055    -0.74100
O1257       O  0.55880645  0.01671578  0.73467251    -0.74100
O1258       O  0.49411886  0.97467779  0.74145669    -0.74200
Ni1259     Ni  0.53087689  0.99673828  0.78437502     1.25400
Ni1260     Ni  0.52625156  0.99560639  0.73616605     1.25400
C1261       C  0.48596240  0.96838374  0.76518094     0.88100
C1262       C  0.57097363  0.02436576  0.75641727     0.88000
C1263       C  0.50250391  0.03988046  0.76117965     0.88000
C1264       C  0.55445629  0.95281437  0.75819758     0.88200
O1265       O  0.28233632  0.53260903  0.99779995    -0.74100
O1266       O  0.28296230  0.47110932  0.04465799    -0.74100
O1267       O  0.28856862  0.47848119  0.99089591    -0.74200
O1268       O  0.27724655  0.52617110  0.05112425    -0.74200
O1269       O  0.23264283  0.52218369  0.04622244    -0.74200
O1270       O  0.24404102  0.47484225  0.98490061    -0.74100
O1271       O  0.23846693  0.46731033  0.03904518    -0.74100
O1272       O  0.23774689  0.52874095  0.99252352    -0.74200
Ni1273     Ni  0.28435411  0.50213433  0.02141048     1.25400
Ni1274     Ni  0.23661340  0.49801698  0.01556730     1.25400
C1275       C  0.25986430  0.54075171  0.98757743     0.88100
C1276       C  0.26077026  0.45892314  0.04940200     0.88000
C1277       C  0.26826873  0.46929964  0.97766316     0.88000
C1278       C  0.25323374  0.53294968  0.05786023     0.88200
O1279       O  0.52394896  0.02216627  0.28072672    -0.74100
O1280       O  0.49716819  0.95188023  0.27741746    -0.74100
O1281       O  0.54626935  0.97260048  0.27428124    -0.74200
O1282       O  0.47448765  0.00064054  0.28266731    -0.74200
O1283       O  0.47054853  0.00404946  0.23794185    -0.74200
O1284       O  0.54151486  0.97635573  0.22965953    -0.74100
O1285       O  0.49223031  0.95483017  0.23243323    -0.74100
O1286       O  0.52010180  0.02624044  0.23575753    -0.74200
Ni1287     Ni  0.51067044  0.98685626  0.28040110     1.25400
Ni1288     Ni  0.50598241  0.99063550  0.23229024     1.25400
C1289       C  0.52741807  0.03523556  0.25894877     0.88100
C1290       C  0.48941824  0.94233330  0.25477674     0.88000
C1291       C  0.55518404  0.96861572  0.25028319     0.74200
C1292       C  0.46033567  0.00606091  0.26144848     0.88200
C1293       C  0.35318397  0.73760301  0.60295615    -0.20000
C1294       C  0.36601077  0.71611781  0.61651799    -0.06500
C1295       C  0.38926461  0.70344135  0.60574348     0.14300
C1296       C  0.39790604  0.71139682  0.58051300    -0.20000
C1297       C  0.38485716  0.73244266  0.56672953    -0.06500
C1298       C  0.36247819  0.74609026  0.57795004     0.14300
C1299       C  0.34803269  0.76941785  0.56426153    -0.23400
H1300       H  0.33549772  0.74733261  0.61157282     0.15600
H1301       H  0.41477125  0.70087003  0.57127347     0.15600
C1302       C  0.40553256  0.68208197  0.62075973    -0.23300
H1303       H  0.34857617  0.78758612  0.57767096     0.05900
H1304       H  0.32664508  0.76393232  0.56042155     0.09100
H1305       H  0.35722937  0.77502466  0.54475327     0.09100
H1306       H  0.39386982  0.66306393  0.62257014     0.09100
H1307       H  0.41120089  0.68982288  0.64116231     0.09100
H1308       H  0.42450574  0.67680833  0.61007716     0.05800
C1309       C  0.45609617  0.58935550  0.72996453    -0.20000
C1310       C  0.47264165  0.60237572  0.74918632    -0.06500
C1311       C  0.46195846  0.62590202  0.76228230     0.14300
C1312       C  0.43608317  0.63626029  0.75484191    -0.20000
C1313       C  0.42061522  0.62432156  0.73399476    -0.06500
C1314       C  0.43080176  0.60019981  0.72192470     0.14300
C1315       C  0.41550654  0.58643152  0.69945157    -0.23400
H1316       H  0.46387123  0.57158627  0.71954855     0.15600
H1317       H  0.42877054  0.65484839  0.76420529     0.15600
C1318       C  0.47751593  0.64110078  0.78371112    -0.23300
H1319       H  0.42541237  0.56714618  0.69302476     0.05900
H1320       H  0.41451226  0.60005989  0.68166653     0.09100
H1321       H  0.39480840  0.58177815  0.70629945     0.09100
H1322       H  0.47972743  0.66261007  0.77753714     0.09100
H1323       H  0.49797447  0.63254218  0.78721347     0.09100
H1324       H  0.46635825  0.64050884  0.80305298     0.05800
C1325       C  0.58967654  0.61227814  0.75709239    -0.20000
C1326       C  0.57218854  0.60140758  0.73737065    -0.06500
C1327       C  0.57947442  0.60213407  0.70994717     0.14300
C1328       C  0.60358688  0.61420975  0.70282211    -0.20000
C1329       C  0.62102141  0.62591113  0.72216467    -0.06500
C1330       C  0.61410589  0.62460981  0.74987350     0.14300
C1331       C  0.63174958  0.63658342  0.77178861    -0.23400
H1332       H  0.58379121  0.61176021  0.77814151     0.15600
H1333       H  0.60863015  0.61441384  0.68153504     0.15600
C1334       C  0.56250078  0.59052472  0.68736679    -0.23300
H1335       H  0.62277700  0.63415202  0.79212073     0.05900
H1336       H  0.63440260  0.65866390  0.76823361     0.09100
H1337       H  0.65171290  0.62616626  0.77202551     0.09100
H1338       H  0.55575447  0.60719459  0.67378518     0.09100
H1339       H  0.57467528  0.57590585  0.67531271     0.09100
H1340       H  0.54476656  0.57955945  0.69477926     0.05800
C1341       C  0.32182692  0.56286221  0.63113597    -0.20000
C1342       C  0.29457340  0.55725801  0.63502721    -0.06500
C1343       C  0.28019415  0.57443713  0.65311604     0.14300
C1344       C  0.29381253  0.59543521  0.66781628    -0.20000
C1345       C  0.32169595  0.60031379  0.66470221    -0.06500
C1346       C  0.33553394  0.58353114  0.64541091     0.14300
C1347       C  0.36531851  0.58593778  0.64009517    -0.23400
H1348       H  0.33306439  0.54981608  0.61754867     0.15600
H1349       H  0.28246937  0.60834791  0.68148620     0.15600
C1350       C  0.25031211  0.57109539  0.65637780    -0.23300
H1351       H  0.37290575  0.56966671  0.62640886     0.05900
H1352       H  0.37656306  0.58396802  0.65939200     0.09100
H1353       H  0.36972895  0.60555484  0.63018380     0.09100
H1354       H  0.24589182  0.55060856  0.66411810     0.09100
H1355       H  0.24005241  0.57377573  0.63647898     0.09100
H1356       H  0.24183074  0.58629505  0.67071668     0.05800
C1357       C  0.60118298  0.31958260  0.71654590    -0.20000
C1358       C  0.61490462  0.33088121  0.69448897    -0.06500
C1359       C  0.60309782  0.35289022  0.68025049     0.14300
C1360       C  0.57899878  0.36413827  0.68980221    -0.20000
C1361       C  0.56662946  0.35380801  0.71284040    -0.06500
C1362       C  0.57732206  0.33087483  0.72602602     0.14300
C1363       C  0.56443013  0.31793278  0.75024568    -0.23400
H1364       H  0.60952253  0.30228586  0.72738061     0.15600
H1365       H  0.57024580  0.38176529  0.67988201     0.15600
C1366       C  0.61550381  0.36474895  0.65528899    -0.23300
H1367       H  0.55991996  0.29633895  0.74556055     0.05900
H1368       H  0.54534001  0.32795853  0.75630083     0.09100
H1369       H  0.57858527  0.31874872  0.76778548     0.09100
H1370       H  0.61865962  0.34850235  0.63993447     0.09100
H1371       H  0.63499791  0.37445053  0.66049432     0.09100
H1372       H  0.60230324  0.38060689  0.64602849     0.05800
C1373       C  0.72763254  0.42596880  0.61833408    -0.20000
C1374       C  0.75502671  0.43328133  0.61775904    -0.06500
C1375       C  0.77372161  0.41738373  0.63267689     0.14300
C1376       C  0.76510976  0.39331464  0.64519230    -0.20000
C1377       C  0.73786206  0.38517218  0.64456597    -0.06500
C1378       C  0.71877814  0.40249229  0.63180246     0.14300
C1379       C  0.68917660  0.39614702  0.63185902    -0.23400
H1380       H  0.71294354  0.43884628  0.60822380     0.15600
H1381       H  0.77989903  0.38054073  0.65543206     0.15600
C1382       C  0.80255540  0.42615773  0.63626492    -0.23300
H1383       H  0.67708497  0.41152009  0.62052666     0.05900
H1384       H  0.68186475  0.39581711  0.65299676     0.09100
H1385       H  0.68578881  0.37608716  0.62233546     0.09100
H1386       H  0.80318306  0.44662203  0.64579758     0.09100
H1387       H  0.81259778  0.42685174  0.61644708     0.09100
H1388       H  0.81421771  0.41192035  0.64937032     0.05800
C1389       C  0.73370782  0.54311704  0.59446629    -0.20000
C1390       C  0.75646716  0.53245139  0.60777661    -0.06500
C1391       C  0.77042252  0.54795246  0.62728624     0.14300
C1392       C  0.75973523  0.57314213  0.63480842    -0.20000
C1393       C  0.73549006  0.58267986  0.62330689    -0.06500
C1394       C  0.72302234  0.56832797  0.60193329     0.14300
C1395       C  0.69853538  0.57941748  0.58717504    -0.23400
H1396       H  0.72340876  0.53106617  0.57925726     0.15600
H1397       H  0.76941813  0.58452994  0.65100026     0.15600
C1398       C  0.79597220  0.53817726  0.64103608    -0.23300
H1399       H  0.69258375  0.56614486  0.56991214     0.05900
H1400       H  0.70303197  0.59986797  0.57904311     0.09100
H1401       H  0.68108057  0.58091562  0.60095835     0.09100
H1402       H  0.80285763  0.51802417  0.63354303     0.09100
H1403       H  0.79267713  0.53669393  0.66315983     0.09100
H1404       H  0.81234870  0.55291690  0.63735897     0.05800
C1405       C  0.66009649  0.29376970  0.55737464    -0.20000
C1406       C  0.66097465  0.26575026  0.55275014    -0.06500
C1407       C  0.67754139  0.24858082  0.56851018     0.14300
C1408       C  0.69312968  0.26021477  0.58897441    -0.20000
C1409       C  0.69205831  0.28828755  0.59371895    -0.06500
C1410       C  0.67533964  0.30533578  0.57797191     0.14300
C1411       C  0.67373356  0.33557500  0.58259180    -0.23400
H1412       H  0.64798535  0.30671704  0.54424451     0.15600
H1413       H  0.70557774  0.24725212  0.60179587     0.15600
C1414       C  0.67947777  0.21829175  0.56409836    -0.23300
H1415       H  0.66115206  0.34586283  0.56690665     0.05900
H1416       H  0.69427264  0.34437525  0.58203186     0.09100
H1417       H  0.66434359  0.33976773  0.60244442     0.09100
H1418       H  0.70073966  0.21239759  0.56012655     0.09100
H1419       H  0.66694277  0.21113861  0.54684693     0.09100
H1420       H  0.67273088  0.20767797  0.58256698     0.05800
C1421       C  0.72897737  0.54161826  0.35905359    -0.20000
C1422       C  0.75590278  0.53761013  0.35113185    -0.06500
C1423       C  0.76798777  0.55648460  0.33385001     0.14300
C1424       C  0.75205399  0.57729016  0.32276726    -0.20000
C1425       C  0.72438559  0.57962007  0.32846959    -0.06500
C1426       C  0.71288035  0.56223216  0.34763772     0.14300
C1427       C  0.68338125  0.56396311  0.35452462    -0.23400
H1428       H  0.71978678  0.52690327  0.37225504     0.15600
H1429       H  0.76120536  0.59143515  0.30890169     0.15600
C1430       C  0.79712841  0.55454917  0.32562781    -0.23300
H1431       H  0.67753659  0.54769131  0.36875560     0.05900
H1432       H  0.67096605  0.56172943  0.33582212     0.09100
H1433       H  0.67879914  0.58381329  0.36427598     0.09100
H1434       H  0.79850165  0.55294314  0.30328859     0.09100
H1435       H  0.80774233  0.53678728  0.33448791     0.09100
H1436       H  0.80781426  0.57316807  0.33237168     0.05800
C1437       C  0.65160254  0.71363510  0.43009278    -0.20000
C1438       C  0.64669517  0.69293523  0.44847803    -0.06500
C1439       C  0.64552479  0.66552293  0.43975028     0.14300
C1440       C  0.65233935  0.65939548  0.41305220    -0.20000
C1441       C  0.65780845  0.68035310  0.39502372    -0.06500
C1442       C  0.65482078  0.70773745  0.40300648     0.14300
C1443       C  0.65444030  0.73104922  0.38334291    -0.23400
H1444       H  0.65162453  0.73468410  0.43670677     0.15600
H1445       H  0.65405076  0.63837264  0.40653358     0.15600
C1446       C  0.63663193  0.64260137  0.45753509    -0.23300
H1447       H  0.63660437  0.74428587  0.38725311     0.05900
H1448       H  0.65232070  0.72391484  0.36214667     0.09100
H1449       H  0.67302596  0.74327506  0.38583847     0.09100
H1450       H  0.61929456  0.63210005  0.44782490     0.09100
H1451       H  0.62992464  0.64970479  0.47768233     0.09100
H1452       H  0.65340273  0.62769999  0.46012288     0.05800
C1453       C  0.63765979  0.67785816  0.55959458    -0.20000
C1454       C  0.65072958  0.70001796  0.54813743    -0.06500
C1455       C  0.67258415  0.71161727  0.56273704     0.14300
C1456       C  0.68131757  0.70012259  0.58769235    -0.20000
C1457       C  0.66872041  0.67721704  0.59901231    -0.06500
C1458       C  0.64602032  0.66638912  0.58449727     0.14300
C1459       C  0.63058657  0.64205457  0.59419115    -0.23400
H1460       H  0.62121242  0.66869207  0.54830161     0.15600
H1461       H  0.69836512  0.70908879  0.59821746     0.15600
C1462       C  0.68713223  0.73615903  0.55252493    -0.23300
H1463       H  0.61399231  0.63639570  0.58002909     0.05900
H1464       H  0.62120207  0.64666794  0.61400116     0.09100
H1465       H  0.64428287  0.62414069  0.59585319     0.09100
H1466       H  0.67831562  0.74401143  0.53338114     0.09100
H1467       H  0.70866063  0.73090962  0.54908699     0.09100
H1468       H  0.68591544  0.75272149  0.56782270     0.05800
C1469       C  0.58257129  0.61085036  0.24293275    -0.20000
C1470       C  0.56524970  0.60376232  0.26407862    -0.06500
C1471       C  0.57537565  0.60618706  0.29099383     0.14300
C1472       C  0.60171008  0.61613129  0.29593013    -0.20000
C1473       C  0.61916295  0.62296549  0.27479912    -0.06500
C1474       C  0.60925907  0.61993053  0.24778555     0.14300
C1475       C  0.62630342  0.62706763  0.22378249    -0.23400
H1476       H  0.57495518  0.60980234  0.22234403     0.15600
H1477       H  0.60895804  0.61777020  0.31663856     0.15600
C1478       C  0.55926684  0.59790024  0.31516478    -0.23300
H1479       H  0.61488538  0.62510916  0.20442204     0.05900
H1480       H  0.64398284  0.61315761  0.22253742     0.09100
H1481       H  0.63326616  0.64839146  0.22562994     0.09100
H1482       H  0.57043025  0.58182772  0.32645600     0.09100
H1483       H  0.53925818  0.58970450  0.30957275     0.09100
H1484       H  0.55625956  0.61571290  0.32871629     0.05800
C1485       C  0.31862833  0.41859402  0.62382545    -0.20000
C1486       C  0.29679406  0.40073144  0.62528523    -0.06500
C1487       C  0.27017494  0.41117903  0.62595759     0.14300
C1488       C  0.26632584  0.43938842  0.62590683    -0.20000
C1489       C  0.28829584  0.45707126  0.62430010    -0.06500
C1490       C  0.31475287  0.44650851  0.62253703     0.14300
C1491       C  0.33932305  0.46351170  0.61756412    -0.23400
H1492       H  0.33915468  0.41077516  0.62337303     0.15600
H1493       H  0.24602323  0.44776754  0.62636972     0.15600
C1494       C  0.24587750  0.39297463  0.62577350    -0.23300
H1495       H  0.35077375  0.45493321  0.60025975     0.05900
H1496       H  0.35270297  0.46317180  0.63570962     0.09100
H1497       H  0.33412743  0.48468615  0.61208557     0.09100
H1498       H  0.24517530  0.38118201  0.64477484     0.09100
H1499       H  0.24678498  0.37889125  0.60817230     0.09100
H1500       H  0.22674984  0.40483606  0.62417605     0.05800
C1501       C  0.43556648  0.38753177  0.68981088    -0.20000
C1502       C  0.41863354  0.37141191  0.70556224    -0.06500
C1503       C  0.42719085  0.36376474  0.73199916     0.14300
C1504       C  0.45422473  0.36692113  0.73907223    -0.20000
C1505       C  0.47185124  0.37969527  0.72156344    -0.06500
C1506       C  0.46203271  0.39240733  0.69796871     0.14300
C1507       C  0.47881076  0.41104054  0.68106049    -0.23400
H1508       H  0.42865650  0.39544191  0.67049178     0.15600
H1509       H  0.46186772  0.35818657  0.75772954     0.15600
C1510       C  0.40845561  0.35258324  0.75302475    -0.23300
H1511       H  0.46896761  0.43139468  0.68024868     0.05900
H1512       H  0.48019901  0.40290207  0.66014490     0.09100
H1513       H  0.49944235  0.41381614  0.68941702     0.09100
H1514       H  0.40183148  0.33185362  0.74760079     0.09100
H1515       H  0.39066500  0.36628516  0.75514464     0.09100
H1516       H  0.41846082  0.35118779  0.77319982     0.05800
C1517       C  0.36782334  0.73519091  0.42790554    -0.20000
C1518       C  0.37523138  0.70899910  0.41934600    -0.06500
C1519       C  0.39445514  0.69391844  0.43449408     0.14300
C1520       C  0.40435110  0.70463549  0.45890287    -0.20000
C1521       C  0.39511855  0.72975369  0.46864250    -0.06500
C1522       C  0.37731931  0.74565525  0.45264164     0.14300
C1523       C  0.36701057  0.77309342  0.46169118    -0.23400
H1524       H  0.35295837  0.74667066  0.41631401     0.15600
H1525       H  0.41776076  0.69244835  0.47138952     0.15600
C1526       C  0.40384272  0.66613308  0.42544503    -0.23300
H1527       H  0.34471261  0.77252561  0.46352278     0.05900
H1528       H  0.37237140  0.78859596  0.44646576     0.09100
H1529       H  0.37563739  0.77959256  0.48144832     0.09100
H1530       H  0.41231507  0.66737807  0.40479078     0.09100
H1531       H  0.38674867  0.65175541  0.42535837     0.09100
H1532       H  0.41974967  0.65776962  0.43913380     0.05800
C1533       C  0.43715085  0.65446875  0.25439699    -0.20000
C1534       C  0.41809950  0.64025559  0.26933569    -0.06500
C1535       C  0.42144003  0.61172327  0.27300986     0.14300
C1536       C  0.44535479  0.59918446  0.26490760    -0.20000
C1537       C  0.46565807  0.61407235  0.25276718    -0.06500
C1538       C  0.46087872  0.64157748  0.24576129     0.14300
C1539       C  0.48041760  0.65791401  0.22948716    -0.23400
H1540       H  0.43429109  0.67602569  0.25074135     0.15600
H1541       H  0.44880702  0.57792608  0.26965769     0.15600
C1542       C  0.40082803  0.59363892  0.28595900    -0.23300
H1543       H  0.47006071  0.66561930  0.21099806     0.05900
H1544       H  0.49814862  0.64578343  0.22289823     0.09100
H1545       H  0.48754192  0.67553719  0.24163595     0.09100
H1546       H  0.38130237  0.60388251  0.28969665     0.09100
H1547       H  0.40895848  0.58572967  0.30543441     0.09100
H1548       H  0.39651650  0.57614461  0.27233117     0.05800
C1549       C  0.64106716  0.30396655  0.42532251    -0.20000
C1550       C  0.65953202  0.29095487  0.40811152    -0.06500
C1551       C  0.66865955  0.26430888  0.41459672     0.14300
C1552       C  0.66033708  0.25226278  0.43883464    -0.20000
C1553       C  0.64290178  0.26591104  0.45650442    -0.06500
C1554       C  0.63269768  0.29187557  0.44940144     0.14300
C1555       C  0.61409795  0.30811265  0.46740437    -0.23400
H1556       H  0.63366195  0.32416389  0.42035414     0.15600
H1557       H  0.66866357  0.23271271  0.44478460     0.15600
C1558       C  0.68839548  0.24904252  0.39704347    -0.23300
H1559       H  0.62340601  0.32796863  0.47244140     0.05900
H1560       H  0.60962414  0.29782093  0.48668130     0.09100
H1561       H  0.59470308  0.31190958  0.45657188     0.09100
H1562       H  0.70696128  0.26119449  0.39452674     0.09100
H1563       H  0.67908821  0.24481171  0.37697430     0.09100
H1564       H  0.69437399  0.22919519  0.40600932     0.05800
C1565       C  0.76822441  0.39263257  0.34526085    -0.20000
C1566       C  0.74932232  0.38528815  0.36501507    -0.06500
C1567       C  0.73315609  0.40555990  0.37745689     0.14300
C1568       C  0.73607464  0.43235644  0.36922409    -0.20000
C1569       C  0.75575413  0.43925996  0.35053451    -0.06500
C1570       C  0.77149951  0.41938946  0.33781575     0.14300
C1571       C  0.79271413  0.42599882  0.31726161    -0.23400
H1572       H  0.78079497  0.37747320  0.33540032     0.15600
H1573       H  0.72514945  0.44837866  0.37967513     0.15600
C1574       C  0.71424059  0.39990826  0.40046508    -0.23300
H1575       H  0.81284702  0.41940044  0.32493076     0.05900
H1576       H  0.79348931  0.44800252  0.31258389     0.09100
H1577       H  0.78823687  0.41499060  0.29811259     0.09100
H1578       H  0.72498256  0.38827133  0.41652593     0.09100
H1579       H  0.69642559  0.38850720  0.39327080     0.09100
H1580       H  0.70648987  0.41898197  0.40981101     0.05800
C1581       C  0.59982134  0.37421271  0.33285084    -0.20000
C1582       C  0.62116550  0.36409061  0.31753993    -0.06500
C1583       C  0.61808866  0.35971638  0.28946527     0.14300
C1584       C  0.59244552  0.36084954  0.27822734    -0.20000
C1585       C  0.57039568  0.36801873  0.29409385    -0.06500
C1586       C  0.57421181  0.37681122  0.32113359     0.14300
C1587       C  0.55201113  0.38882258  0.33807673    -0.23400
H1588       H  0.60269111  0.37832224  0.35425955     0.15600
H1589       H  0.58956989  0.35473734  0.25732538     0.15600
C1590       C  0.64125796  0.35244744  0.27119679    -0.23300
H1591       H  0.54948111  0.37649735  0.35660073     0.05900
H1592       H  0.53247092  0.39008148  0.32705538     0.09100
H1593       H  0.55757576  0.40977580  0.34427733     0.09100
H1594       H  0.63832966  0.33168113  0.26281797     0.09100
H1595       H  0.66107893  0.35325469  0.28178442     0.09100
H1596       H  0.64191883  0.36712232  0.25421811     0.05800
C1597       C  0.47300047  0.31277454  0.26235040    -0.20000
C1598       C  0.47896534  0.33535020  0.27846675    -0.06500
C1599       C  0.46190002  0.34341672  0.29958470     0.14300
C1600       C  0.43861851  0.32885932  0.30369636    -0.20000
C1601       C  0.43151269  0.30672709  0.28694874    -0.06500
C1602       C  0.44942869  0.29803886  0.26638924     0.14300
C1603       C  0.44435233  0.27345057  0.24880941    -0.23400
H1604       H  0.48692625  0.30670373  0.24661519     0.15600
H1605       H  0.42547171  0.33583447  0.31973955     0.15600
C1606       C  0.46681417  0.36790526  0.31750471    -0.23300
H1607       H  0.46160067  0.26904708  0.23524938     0.05900
H1608       H  0.42632874  0.27689421  0.23573131     0.09100
H1609       H  0.44145361  0.25530949  0.26169645     0.09100
H1610       H  0.44970451  0.38249328  0.31527577     0.09100
H1611       H  0.48553025  0.37886716  0.31258762     0.09100
H1612       H  0.46798626  0.36146437  0.33897634     0.05800
C1613       C  0.31614792  0.55204521  0.36574915    -0.20000
C1614       C  0.33261683  0.53459683  0.38061240    -0.06500
C1615       C  0.35667550  0.54327228  0.39309778     0.14300
C1616       C  0.36521932  0.56948031  0.38807266    -0.20000
C1617       C  0.34973067  0.58629410  0.37135215    -0.06500
C1618       C  0.32425500  0.57829898  0.36121211     0.14300
C1619       C  0.30545169  0.59715964  0.34594458    -0.23400
H1620       H  0.29735928  0.54479653  0.35703990     0.15600
H1621       H  0.38424085  0.57651538  0.39646461     0.15600
C1622       C  0.37356625  0.52551295  0.41149538    -0.23300
H1623       H  0.28610806  0.58716936  0.34050937     0.05900
H1624       H  0.31475099  0.60375858  0.32684308     0.09100
H1625       H  0.30054560  0.61498135  0.35884570     0.09100
H1626       H  0.39403614  0.52286190  0.40291615     0.09100
H1627       H  0.36472944  0.50514391  0.41452944     0.09100
H1628       H  0.37540640  0.53541414  0.43165796     0.05800
C1629       C  0.35117032  0.42687512  0.36283726    -0.20000
C1630       C  0.32680110  0.43978807  0.35583889    -0.06500
C1631       C  0.31252889  0.43154683  0.33247265     0.14300
C1632       C  0.32149342  0.40849608  0.31854659    -0.20000
C1633       C  0.34335370  0.39291316  0.32845569    -0.06500
C1634       C  0.36009034  0.40388607  0.34879331     0.14300
C1635       C  0.38686870  0.39148734  0.35658946    -0.23400
H1636       H  0.36327809  0.43474288  0.37945751     0.15600
H1637       H  0.30902468  0.40042616  0.30226245     0.15600
C1638       C  0.28746437  0.44588234  0.32223055    -0.23300
H1639       H  0.40307877  0.40634104  0.35270916     0.05900
H1640       H  0.39160535  0.37280928  0.34491290     0.09100
H1641       H  0.38711174  0.38682583  0.37846580     0.09100
H1642       H  0.29056028  0.45252004  0.30106392     0.09100
H1643       H  0.28211721  0.46407436  0.33437819     0.09100
H1644       H  0.27017052  0.43170887  0.32267642     0.05800
C1645       C  0.37836361  0.31398013  0.58164526    -0.20000
C1646       C  0.36105080  0.29913201  0.59822934    -0.06500
C1647       C  0.35421057  0.27238357  0.59014532     0.14300
C1648       C  0.36427853  0.26168144  0.56545673    -0.20000
C1649       C  0.38063263  0.27723899  0.54839143    -0.06500
C1650       C  0.38770603  0.30380854  0.55688432     0.14300
C1651       C  0.40439609  0.32271407  0.54015202    -0.23400
H1652       H  0.38372632  0.33455436  0.58741892     0.15600
H1653       H  0.35837860  0.24153049  0.55886762     0.15600
C1654       C  0.33664371  0.25506049  0.60754774    -0.23300
H1655       H  0.39320366  0.34212986  0.53706663     0.05900
H1656       H  0.40920204  0.31440929  0.51996760     0.09100
H1657       H  0.42354288  0.32724497  0.55103687     0.09100
H1658       H  0.31635231  0.26455179  0.60943463     0.09100
H1659       H  0.34597754  0.25291406  0.62795627     0.09100
H1660       H  0.33405766  0.23439873  0.59879197     0.05800
C1661       C  0.38077942  0.30216674  0.44036528    -0.20000
C1662       C  0.37464703  0.27572964  0.44848158    -0.06500
C1663       C  0.36072949  0.25813112  0.43064061     0.14300
C1664       C  0.35342289  0.26755937  0.40488326    -0.20000
C1665       C  0.35921129  0.29419197  0.39707579    -0.06500
C1666       C  0.37307133  0.31165468  0.41485708     0.14300
C1667       C  0.37980725  0.34016481  0.40681210    -0.23400
H1668       H  0.39169366  0.31545960  0.45403827     0.15600
H1669       H  0.34224188  0.25441876  0.39119557     0.15600
C1670       C  0.35230207  0.22990571  0.43844445    -0.23300
H1671       H  0.39091265  0.35112158  0.42310663     0.05900
H1672       H  0.36096375  0.35171221  0.40224559     0.09100
H1673       H  0.39270003  0.33945279  0.38859126     0.09100
H1674       H  0.35813239  0.22454481  0.45945588     0.09100
H1675       H  0.36173708  0.21483086  0.42459494     0.09100
H1676       H  0.33001190  0.22830877  0.43670473     0.05800
C1677       C  0.33396175  0.72632816  0.51161591    -0.20000
C1678       C  0.35940912  0.71409552  0.51471667    -0.06500
C1679       C  0.36131875  0.68539664  0.51583563     0.14300
C1680       C  0.33778346  0.66971407  0.51354131    -0.20000
C1681       C  0.31224118  0.68190084  0.51026774    -0.06500
C1682       C  0.31032456  0.71071656  0.50982095     0.14300
C1683       C  0.28343210  0.72525984  0.50884135    -0.23400
H1684       H  0.33262490  0.74827739  0.51074128     0.15600
H1685       H  0.33935785  0.64773716  0.51415137     0.15600
C1686       C  0.38787813  0.67071488  0.51946166    -0.23300
H1687       H  0.28568684  0.74750035  0.51198459     0.05900
H1688       H  0.27020788  0.71751936  0.52502419     0.09100
H1689       H  0.27356311  0.72241681  0.48884797     0.09100
H1690       H  0.38736499  0.65830092  0.53813897     0.09100
H1691       H  0.40521004  0.68468127  0.52123220     0.09100
H1692       H  0.39137817  0.65707559  0.50185387     0.05800
C1693       C  0.27256271  0.58319835  0.55009764    -0.20000
C1694       C  0.24512325  0.59093165  0.54806344    -0.06500
C1695       C  0.22601080  0.57359951  0.56084322     0.14300
C1696       C  0.23509411  0.55173711  0.57703549    -0.20000
C1697       C  0.26248933  0.54526191  0.57969312    -0.06500
C1698       C  0.28135210  0.56067824  0.56528124     0.14300
C1699       C  0.31081815  0.55304860  0.56412875    -0.23400
H1700       H  0.28738390  0.59326196  0.53797165     0.15600
H1701       H  0.22064598  0.53947594  0.58773703     0.15600
C1702       C  0.19589030  0.57673738  0.55693213    -0.23300
H1703       H  0.31661280  0.54956662  0.54275621     0.05900
H1704       H  0.31568919  0.53414656  0.57533049     0.09100
H1705       H  0.32313124  0.56991046  0.57249897     0.09100
H1706       H  0.19059004  0.57704812  0.53507724     0.09100
H1707       H  0.18849348  0.59540762  0.56707187     0.09100
H1708       H  0.18474969  0.55959610  0.56598503     0.05800
C1709       C  0.24866553  0.54594569  0.42202149    -0.20000
C1710       C  0.26066566  0.55644106  0.44565999    -0.06500
C1711       C  0.28681993  0.54684229  0.45312949     0.14300
C1712       C  0.29898612  0.52564264  0.43823563    -0.20000
C1713       C  0.28694203  0.51503577  0.41468086    -0.06500
C1714       C  0.26184047  0.52621011  0.40595572     0.14300
C1715       C  0.24907158  0.51913684  0.37909231    -0.23400
H1716       H  0.22903558  0.55365752  0.41575533     0.15600
H1717       H  0.31900163  0.51856891  0.44405349     0.15600
C1718       C  0.30348660  0.55981767  0.47528510    -0.23300
H1719       H  0.24568897  0.53800997  0.36725061     0.05900
H1720       H  0.22934375  0.50924799  0.38239337     0.09100
H1721       H  0.26184958  0.50552491  0.36665383     0.09100
H1722       H  0.30665872  0.54515052  0.49202881     0.09100
H1723       H  0.29434062  0.57877200  0.48333727     0.09100
H1724       H  0.32344778  0.56551625  0.46713616     0.05800
C1725       C  0.72861402  0.67779151  0.48585418    -0.20000
C1726       C  0.72937186  0.64949888  0.49048890    -0.06500
C1727       C  0.70522652  0.63710854  0.49978902     0.14300
C1728       C  0.68187053  0.65317948  0.50407821    -0.20000
C1729       C  0.68099343  0.68086240  0.49770664    -0.06500
C1730       C  0.70481865  0.69334345  0.48879691     0.14300
C1731       C  0.70572649  0.72311221  0.48200309    -0.23400
H1732       H  0.74666666  0.68805918  0.47950963     0.15600
H1733       H  0.66365754  0.64380866  0.51134183     0.15600
C1734       C  0.70278748  0.60685641  0.50368542    -0.23300
H1735       H  0.72103137  0.73325489  0.49503674     0.05900
H1736       H  0.68613294  0.73365061  0.48503785     0.09100
H1737       H  0.71141914  0.72552476  0.46049196     0.09100
H1738       H  0.71291990  0.60055378  0.52274278     0.09100
H1739       H  0.71127381  0.59572616  0.48608514     0.09100
H1740       H  0.68136946  0.60069770  0.50543866     0.05800
C1741       C  0.80329440  0.53875279  0.43478479    -0.20000
C1742       C  0.83064966  0.54476117  0.43073802    -0.06500
C1743       C  0.84350835  0.53639988  0.40687989     0.14300
C1744       C  0.82858613  0.52209735  0.38745307    -0.20000
C1745       C  0.80128270  0.51647203  0.39164101    -0.06500
C1746       C  0.78854598  0.52425584  0.41575258     0.14300
C1747       C  0.75973011  0.51737993  0.42234037    -0.23400
H1748       H  0.79316921  0.54584683  0.45286018     0.15600
H1749       H  0.83816742  0.51533632  0.36896827     0.15600
C1750       C  0.87278005  0.54242123  0.40216530    -0.23300
H1751       H  0.74782517  0.53642440  0.42496017     0.05900
H1752       H  0.75932007  0.50570787  0.44150316     0.09100
H1753       H  0.74967103  0.50487697  0.40660309     0.09100
H1754       H  0.88526110  0.53365047  0.41879325     0.09100
H1755       H  0.87593248  0.56468911  0.40143576     0.09100
H1756       H  0.87983470  0.53358589  0.38273615     0.05800
C1757       C  0.78134754  0.55074928  0.52059385    -0.20000
C1758       C  0.80399433  0.56743126  0.52743055    -0.06500
C1759       C  0.81963205  0.55669953  0.54975635     0.14300
C1760       C  0.81117364  0.53313554  0.56497581    -0.20000
C1761       C  0.78847841  0.51680121  0.55813542    -0.06500
C1762       C  0.77381225  0.52639022  0.53496626     0.14300
C1763       C  0.75020061  0.51037430  0.52456290    -0.23400
H1764       H  0.76951800  0.55618893  0.50290107     0.15600
H1765       H  0.82290702  0.52730623  0.58266711     0.15600
C1766       C  0.84597048  0.56913392  0.55836017    -0.23300
H1767       H  0.73993458  0.52059144  0.50726137     0.05900
H1768       H  0.73516831  0.50747640  0.54069528     0.09100
H1769       H  0.75759850  0.49028054  0.51744170     0.09100
H1770       H  0.84415486  0.57756302  0.57914660     0.09100
H1771       H  0.85269666  0.58535470  0.54473883     0.09100
H1772       H  0.86200488  0.55321928  0.55833269     0.05800
C1773       C  0.82304569  0.69922760  0.33216691    -0.20000
C1774       C  0.82967863  0.71730580  0.35330952    -0.06500
C1775       C  0.80867067  0.73262551  0.36523277     0.14300
C1776       C  0.78204207  0.73008297  0.35536650    -0.20000
C1777       C  0.77521538  0.71250661  0.33369124    -0.06500
C1778       C  0.79629815  0.69655556  0.32223266     0.14300
C1779       C  0.79094536  0.67626922  0.29995441    -0.23400
H1780       H  0.83908630  0.68718483  0.32329152     0.15600
H1781       H  0.76643058  0.74234655  0.36476873     0.15600
C1782       C  0.81360471  0.75204493  0.38835573    -0.23300
H1783       H  0.80958658  0.66512768  0.29405279     0.05900
H1784       H  0.78307649  0.68687423  0.28171916     0.09100
H1785       H  0.77614554  0.66105783  0.30683480     0.09100
H1786       H  0.83517945  0.75343199  0.39421067     0.09100
H1787       H  0.80221904  0.74526924  0.40628858     0.09100
H1788       H  0.80636776  0.77268530  0.38267737     0.05800
C1789       C  0.84231959  0.67224893  0.39779021    -0.20000
C1790       C  0.86014221  0.69380611  0.40500990    -0.06500
C1791       C  0.86564442  0.69494998  0.43354079     0.14300
C1792       C  0.85654553  0.67423959  0.45188358    -0.20000
C1793       C  0.83735866  0.65364304  0.44517762    -0.06500
C1794       C  0.83048716  0.65346305  0.41673744     0.14300
C1795       C  0.81056929  0.63372362  0.40473042    -0.23400
H1796       H  0.83733965  0.66955205  0.37664171     0.15600
H1797       H  0.86484557  0.67486603  0.47211243     0.15600
C1798       C  0.87868914  0.71928496  0.44640736    -0.23300
H1799       H  0.82029625  0.62199034  0.38818186     0.05900
H1800       H  0.79306738  0.64515289  0.39617189     0.09100
H1801       H  0.80290139  0.61889488  0.41932633     0.09100
H1802       H  0.87840452  0.73695095  0.43266630     0.09100
H1803       H  0.89955004  0.71412570  0.45310559     0.09100
H1804       H  0.86696656  0.72580629  0.46437791     0.05800
C1805       C  0.92909286  0.78849463  0.35913797    -0.20000
C1806       C  0.92239054  0.76377721  0.34575286    -0.06500
C1807       C  0.93707212  0.75986416  0.32106136     0.14300
C1808       C  0.95655567  0.77944262  0.31130119    -0.20000
C1809       C  0.96369121  0.80401619  0.32510402    -0.06500
C1810       C  0.94951737  0.80724889  0.35035798     0.14300
C1811       C  0.95490214  0.83060577  0.36948633    -0.23400
H1812       H  0.91768891  0.79415135  0.37675894     0.15600
H1813       H  0.96674013  0.77456943  0.29278745     0.15600
C1814       C  0.93304555  0.73466159  0.30424134    -0.23300
H1815       H  0.93648999  0.84351228  0.37112488     0.05900
H1816       H  0.97183699  0.84360127  0.36364059     0.09100
H1817       H  0.96009733  0.82247848  0.38980250     0.09100
H1818       H  0.92455008  0.74032252  0.28414696     0.09100
H1819       H  0.91938417  0.71998649  0.31387849     0.09100
H1820       H  0.95275335  0.72420387  0.30133977     0.05800
C1821       C  0.92650477  0.75039308  0.41287221    -0.20000
C1822       C  0.92001222  0.72602596  0.40019050    -0.06500
C1823       C  0.93574646  0.70253212  0.40513684     0.14300
C1824       C  0.95725558  0.70405050  0.42390101    -0.20000
C1825       C  0.96435187  0.72905249  0.43584741    -0.06500
C1826       C  0.94946045  0.75287622  0.42887647     0.14300
C1827       C  0.95719672  0.78126277  0.43766305    -0.23400
H1828       H  0.91320225  0.76770808  0.41031343     0.15600
H1829       H  0.96882128  0.68591048  0.42883591     0.15600
C1830       C  0.93015863  0.67629563  0.39043017    -0.23300
H1831       H  0.94239057  0.79685691  0.43065271     0.05900
H1832       H  0.97698829  0.78651766  0.42887674     0.09100
H1833       H  0.95841516  0.78280672  0.45990991     0.09100
H1834       H  0.93146521  0.67955391  0.36826881     0.09100
H1835       H  0.90971323  0.66898775  0.39534700     0.09100
H1836       H  0.94493426  0.66016543  0.39615346     0.05800
C1837       C  0.83704913  0.70989143  0.63157174    -0.20000
C1838       C  0.83330403  0.73826929  0.63246828    -0.06500
C1839       C  0.80931971  0.74939171  0.64300917     0.14300
C1840       C  0.78975492  0.73178553  0.65257869    -0.20000
C1841       C  0.79353388  0.70358255  0.65105106    -0.06500
C1842       C  0.81723563  0.69234686  0.64048197     0.14300
C1843       C  0.82170039  0.66204136  0.63896448    -0.23400
H1844       H  0.85563276  0.70137378  0.62393349     0.15600
H1845       H  0.77126240  0.74006971  0.66096483     0.15600
C1846       C  0.80343324  0.77946958  0.64366923    -0.23300
H1847       H  0.84155582  0.65678727  0.63001346     0.05900
H1848       H  0.80570214  0.65267826  0.62618684     0.09100
H1849       H  0.82103417  0.65326447  0.65959266     0.09100
H1850       H  0.81938868  0.79167378  0.63418000     0.09100
H1851       H  0.80121136  0.78631251  0.66497625     0.09100
H1852       H  0.78431326  0.78370937  0.63249569     0.05800
C1853       C  0.87215372  0.70858893  0.57378682    -0.20000
C1854       C  0.85511359  0.73116308  0.57735390    -0.06500
C1855       C  0.82796413  0.72974392  0.56840103     0.14300
C1856       C  0.81837911  0.70537813  0.55726731    -0.20000
C1857       C  0.83520272  0.68244250  0.55520145    -0.06500
C1858       C  0.86237114  0.68412097  0.56346288     0.14300
C1859       C  0.88120857  0.66009343  0.56058968    -0.23400
H1860       H  0.89283916  0.70941414  0.58030923     0.15600
H1861       H  0.79797335  0.70444830  0.54923113     0.15600
C1862       C  0.80882239  0.75364995  0.57005690    -0.23300
H1863       H  0.90186498  0.66476566  0.56809198     0.05900
H1864       H  0.88265845  0.65400119  0.53899754     0.09100
H1865       H  0.87349814  0.64277397  0.57246898     0.09100
H1866       H  0.81857455  0.77216552  0.57830979     0.09100
H1867       H  0.79157846  0.74847456  0.58316470     0.09100
H1868       H  0.80102405  0.75854610  0.54949559     0.05800
C1869       C  0.92786105  0.79471174  0.65037316    -0.20000
C1870       C  0.91283636  0.80019063  0.62669158    -0.06500
C1871       C  0.92032862  0.82250521  0.61047353     0.14300
C1872       C  0.94336627  0.83742014  0.61747541    -0.20000
C1873       C  0.95814445  0.83168222  0.64103012    -0.06500
C1874       C  0.94981199  0.81057816  0.65813204     0.14300
C1875       C  0.96290066  0.80484426  0.68518480    -0.23400
H1876       H  0.92277891  0.77781252  0.66311884     0.15600
H1877       H  0.94903934  0.85468360  0.60531416     0.15600
C1878       C  0.90371243  0.83236367  0.58670487    -0.23300
H1879       H  0.97243041  0.78433066  0.68487008     0.05900
H1880       H  0.94733252  0.80543064  0.70118248     0.09100
H1881       H  0.97830612  0.81995139  0.69092053     0.09100
H1882       H  0.88466408  0.82110118  0.58381259     0.09100
H1883       H  0.91575305  0.83066225  0.56795569     0.09100
H1884       H  0.89809275  0.85403443  0.58993422     0.05800
C1885       C  0.90629126  0.77390275  0.55032997    -0.20000
C1886       C  0.90875886  0.76348844  0.57647349    -0.06500
C1887       C  0.93227462  0.74926374  0.58492529     0.14300
C1888       C  0.95351350  0.74748282  0.56726385    -0.20000
C1889       C  0.95124236  0.75782644  0.54116905    -0.06500
C1890       C  0.92747940  0.77100801  0.53222591     0.14300
C1891       C  0.92405733  0.78108284  0.50377811    -0.23400
H1892       H  0.88782591  0.78426570  0.54420472     0.15600
H1893       H  0.97188806  0.73696582  0.57351572     0.15600
C1894       C  0.93513193  0.73442209  0.61154873    -0.23300
H1895       H  0.90371782  0.79014858  0.50025542     0.05900
H1896       H  0.92658807  0.76384127  0.48942008     0.09100
H1897       H  0.93920000  0.79701341  0.49990194     0.09100
H1898       H  0.91961886  0.71867050  0.61343099     0.09100
H1899       H  0.93368710  0.74834751  0.62880139     0.09100
H1900       H  0.95495768  0.72386469  0.61353393     0.05800
C1901       C  0.21985002  0.76545212  0.64364868    -0.20000
C1902       C  0.19577798  0.75141168  0.64863320    -0.06500
C1903       C  0.19683473  0.72928490  0.66677575     0.14300
C1904       C  0.22134135  0.72231101  0.67986856    -0.20000
C1905       C  0.24542504  0.73647645  0.67525604    -0.06500
C1906       C  0.24459936  0.75818738  0.65648189     0.14300
C1907       C  0.26937750  0.77461867  0.65090985    -0.23400
H1908       H  0.21902387  0.78282938  0.63030110     0.15600
H1909       H  0.22160205  0.70541952  0.69387766     0.15600
C1910       C  0.17232957  0.71281619  0.67315984    -0.23300
H1911       H  0.26494543  0.79157222  0.63674242     0.05900
H1912       H  0.28513500  0.76152084  0.64162112     0.09100
H1913       H  0.27723310  0.78346620  0.67010343     0.09100
H1914       H  0.17604407  0.69124627  0.66750057     0.09100
H1915       H  0.15404392  0.71985406  0.66213173     0.09100
H1916       H  0.16833667  0.71401331  0.69518540     0.05800
C1917       C  0.19276232  0.71409263  0.56268173    -0.20000
C1918       C  0.18180919  0.68805526  0.56540603    -0.06500
C1919       C  0.16157610  0.68388114  0.58480522     0.14300
C1920       C  0.15269374  0.70580885  0.60096323    -0.20000
C1921       C  0.16388562  0.73177327  0.59846232    -0.06500
C1922       C  0.18425420  0.73592475  0.57908537     0.14300
C1923       C  0.19719669  0.76314940  0.57487540    -0.23400
H1924       H  0.20816907  0.71733091  0.54766126     0.15600
H1925       H  0.13718727  0.70260150  0.61587510     0.15600
C1926       C  0.14897529  0.65639862  0.58796458    -0.23300
H1927       H  0.19390205  0.76965667  0.55361246     0.05900
H1928       H  0.21923015  0.76141353  0.57889475     0.09100
H1929       H  0.18892139  0.77929226  0.58819611     0.09100
H1930       H  0.16452530  0.64134426  0.59442157     0.09100
H1931       H  0.13991202  0.64979864  0.56839960     0.09100
H1932       H  0.13285936  0.65674332  0.60340731     0.05800
C1933       C  0.08321550  0.79559420  0.65608954    -0.20000
C1934       C  0.10794491  0.80575097  0.64749467    -0.06500
C1935       C  0.11123762  0.83433049  0.64847109     0.14300
C1936       C  0.09050669  0.85154494  0.65888615    -0.20000
C1937       C  0.06615302  0.84148687  0.66955365    -0.06500
C1938       C  0.06259362  0.81247123  0.66695038     0.14300
C1939       C  0.03765217  0.79738592  0.67510161    -0.23400
H1940       H  0.08003915  0.77385821  0.65491632     0.15600
H1941       H  0.09334382  0.87318792  0.65776030     0.15600
C1942       C  0.13635236  0.84697534  0.63744554    -0.23300
H1943       H  0.02925496  0.78630112  0.65732812     0.05900
H1944       H  0.02158471  0.81055739  0.68287890     0.09100
H1945       H  0.04293271  0.78230131  0.69097731     0.09100
H1946       H  0.13870124  0.84113862  0.61587038     0.09100
H1947       H  0.15428149  0.83995373  0.64907710     0.09100
H1948       H  0.13558991  0.86951172  0.63874483     0.05800
C1949       C  0.08500988  0.77045575  0.55513495    -0.20000
C1950       C  0.06530615  0.75102855  0.56125223    -0.06500
C1951       C  0.06662394  0.73768304  0.58650754     0.14300
C1952       C  0.08803071  0.74359990  0.60448513    -0.20000
C1953       C  0.10777528  0.76268337  0.59789240    -0.06500
C1954       C  0.10613822  0.77643678  0.57305063     0.14300
C1955       C  0.12640808  0.79736953  0.56464130    -0.23400
H1956       H  0.08432092  0.78083605  0.53583369     0.15600
H1957       H  0.08946244  0.73325215  0.62376348     0.15600
C1958       C  0.04527808  0.71797003  0.59496046    -0.23300
H1959       H  0.11590799  0.81706458  0.56097443     0.05900
H1960       H  0.13628666  0.79062443  0.54566600     0.09100
H1961       H  0.14240425  0.80088348  0.58004603     0.09100
H1962       H  0.04536967  0.69994969  0.58138629     0.09100
H1963       H  0.02514438  0.72805455  0.59414305     0.09100
H1964       H  0.04878231  0.71067255  0.61594508     0.05800
C1965       C  0.22655904  0.73749825  0.38311781    -0.20000
C1966       C  0.20625139  0.71838759  0.37933641    -0.06500
C1967       C  0.21268169  0.69058525  0.37624609     0.14300
C1968       C  0.23942833  0.68236491  0.37849808    -0.20000
C1969       C  0.25977943  0.70124831  0.38372244    -0.06500
C1970       C  0.25339793  0.72931546  0.38590792     0.14300
C1971       C  0.27426929  0.75061484  0.39247123    -0.23400
H1972       H  0.22100179  0.75867898  0.38591886     0.15600
H1973       H  0.24441731  0.66103626  0.37557769     0.15600
C1974       C  0.19186908  0.66908562  0.37072717    -0.23300
H1975       H  0.26479132  0.77072110  0.39670684     0.05900
H1976       H  0.28799421  0.75345138  0.37516734     0.09100
H1977       H  0.28604376  0.74453963  0.41073446     0.09100
H1978       H  0.17096679  0.67718223  0.37110478     0.09100
H1979       H  0.19363229  0.65284010  0.38616263     0.09100
H1980       H  0.19548138  0.65983790  0.35053980     0.05800
C1981       C  0.16924859  0.67546476  0.43129538    -0.20000
C1982       C  0.17890749  0.70205330  0.42932884    -0.06500
C1983       C  0.20157119  0.70934999  0.44524007     0.14300
C1984       C  0.21439313  0.68982053  0.46158330    -0.20000
C1985       C  0.20690014  0.66220571  0.46165352    -0.06500
C1986       C  0.18273238  0.65552093  0.44710314     0.14300
C1987       C  0.17020255  0.62776515  0.44846796    -0.23400
H1988       H  0.15149337  0.67000867  0.41955925     0.15600
H1989       H  0.22932063  0.69715559  0.47571860     0.15600
C1990       C  0.21246691  0.73784476  0.44645176    -0.23300
H1991       H  0.18343322  0.61247105  0.43867212     0.05900
H1992       H  0.15047700  0.62709395  0.43761939     0.09100
H1993       H  0.16652933  0.62214152  0.46981259     0.09100
H1994       H  0.20176038  0.75201918  0.43262872     0.09100
H1995       H  0.23413329  0.73755079  0.44101015     0.09100
H1996       H  0.21068348  0.74590736  0.46738469     0.05800
C1997       C  0.08942752  0.81001855  0.37781968    -0.20000
C1998       C  0.07541020  0.80263872  0.35405431    -0.06500
C1999       C  0.08312816  0.77822189  0.34076885     0.14300
C2000       C  0.10403878  0.76174320  0.35174856    -0.20000
C2001       C  0.11757561  0.76867980  0.37594935    -0.06500
C2002       C  0.11036951  0.79353165  0.38883095     0.14300
C2003       C  0.12492517  0.80382636  0.41366834    -0.23400
H2004       H  0.08386840  0.82879853  0.38795839     0.15600
H2005       H  0.10991278  0.74320874  0.34132546     0.15600
C2006       C  0.06981585  0.76985858  0.31453605    -0.23300
H2007       H  0.13348613  0.82413342  0.40945862     0.05900
H2008       H  0.14179845  0.79040064  0.42010755     0.09100
H2009       H  0.11053181  0.80569254  0.43064536     0.09100
H2010       H  0.07171485  0.78635786  0.29944756     0.09100
H2011       H  0.04816845  0.76559184  0.31773506     0.09100
H2012       H  0.07924032  0.75116549  0.30600765     0.05800
C2013       C  0.09964329  0.71487639  0.41670837    -0.20000
C2014       C  0.12176872  0.72889793  0.42734560    -0.06500
C2015       C  0.12426779  0.73431289  0.45526435     0.14300
C2016       C  0.10345255  0.72665239  0.47190402    -0.20000
C2017       C  0.08001808  0.71570443  0.46066366    -0.06500
C2018       C  0.07827651  0.70841610  0.43325583     0.14300
C2019       C  0.05322690  0.69575054  0.42131921    -0.23400
H2020       H  0.09872643  0.70991358  0.39531012     0.15600
H2021       H  0.10399443  0.73248578  0.49312586     0.15600
C2022       C  0.14716652  0.75000582  0.46782695    -0.23300
H2023       H  0.05546330  0.69143022  0.39937608     0.05900
H2024       H  0.03566104  0.70967284  0.42383765     0.09100
H2025       H  0.04915595  0.67630357  0.43174430     0.09100
H2026       H  0.16081472  0.75837406  0.45255750     0.09100
H2027       H  0.15883198  0.73664662  0.48181332     0.09100
H2028       H  0.13901758  0.76757637  0.47944818     0.05800
C2029       C  0.77323197  0.15598365  0.11938421    -0.20000
C2030       C  0.79818625  0.14490276  0.12800685    -0.06500
C2031       C  0.81422772  0.13063198  0.10859167     0.14300
C2032       C  0.80511752  0.12852331  0.08177698    -0.20000
C2033       C  0.78046873  0.13964871  0.07342975    -0.06500
C2034       C  0.76408484  0.15329964  0.09243499     0.14300
C2035       C  0.73705690  0.16540806  0.08497040    -0.23400
H2036       H  0.76076464  0.16703498  0.13366296     0.15600
H2037       H  0.81718173  0.11753621  0.06707226     0.15600
C2038       C  0.84093561  0.11707507  0.11534528    -0.23300
H2039       H  0.73741792  0.18772144  0.08842591     0.05900
H2040       H  0.72125765  0.15645076  0.09783942     0.09100
H2041       H  0.73142504  0.16163816  0.06355481     0.09100
H2042       H  0.83830079  0.10220063  0.13191011     0.09100
H2043       H  0.85610486  0.13254804  0.12115518     0.09100
H2044       H  0.84934645  0.10571931  0.09782770     0.05800
C2045       C  0.91339524  0.92145461  0.31456675    -0.20000
C2046       C  0.92514370  0.90752435  0.29278822    -0.06500
C2047       C  0.92148441  0.91720598  0.26633810     0.14300
C2048       C  0.90791337  0.94176005  0.26238192    -0.20000
C2049       C  0.89651954  0.95623730  0.28406230    -0.06500
C2050       C  0.89878231  0.94568782  0.31044548     0.14300
C2051       C  0.88585939  0.95988760  0.33408401    -0.23400
H2052       H  0.91695823  0.91406099  0.33491421     0.15600
H2053       H  0.90608718  0.94964746  0.24208341     0.15600
C2054       C  0.93209792  0.90154783  0.24233584    -0.23300
H2055       H  0.88924879  0.94854608  0.35320889     0.05900
H2056       H  0.86376434  0.96173970  0.33052326     0.09100
H2057       H  0.89453381  0.98044585  0.33666534     0.09100
H2058       H  0.92367924  0.88071391  0.24234097     0.09100
H2059       H  0.95441486  0.90015037  0.24303037     0.09100
H2060       H  0.92620867  0.91135544  0.22293519     0.05800
C2061       C  0.86577957  0.08342940  0.22943892    -0.20000
C2062       C  0.84102284  0.09597112  0.23573914    -0.06500
C2063       C  0.82565346  0.08576377  0.25729720     0.14300
C2064       C  0.83528351  0.06276817  0.27121813    -0.20000
C2065       C  0.85955610  0.04984644  0.26388585    -0.06500
C2066       C  0.87540926  0.06096453  0.24333789     0.14300
C2067       C  0.90138348  0.04812080  0.23398633    -0.23400
H2068       H  0.87777941  0.09088832  0.21289829     0.15600
H2069       H  0.82277679  0.05343982  0.28638986     0.15600
C2070       C  0.79909124  0.09833584  0.26538403    -0.23300
H2071       H  0.90946594  0.05816203  0.21574550     0.05900
H2072       H  0.89824610  0.02649600  0.22864968     0.09100
H2073       H  0.91682754  0.05041323  0.25005310     0.09100
H2074       H  0.78441692  0.09696768  0.24831960     0.09100
H2075       H  0.80197750  0.11993837  0.27115687     0.09100
H2076       H  0.79023152  0.08777377  0.28294837     0.05800
C2077       C  0.04299599  0.95067347  0.28558389    -0.20000
C2078       C  0.07031337  0.94861870  0.27741973    -0.06500
C2079       C  0.08108735  0.92174088  0.28333153     0.14300
C2080       C  0.06430252  0.89798981  0.28595271    -0.20000
C2081       C  0.03686836  0.89951607  0.29347632    -0.06500
C2082       C  0.02857306  0.92796472  0.29752611     0.14300
C2083       C  0.00962009  0.93644730  0.31980518    -0.23400
H2084       H  0.03400162  0.97082191  0.28623670     0.15600
H2085       H  0.07393292  0.87815540  0.28631790     0.15600
C2086       C  0.10881776  0.91842905  0.29540900    -0.23300
H2087       H  0.02018762  0.95075619  0.33367883     0.05900
H2088       H  0.00359902  0.91927097  0.33269931     0.09100
H2089       H  0.99168778  0.94732146  0.31144994     0.09100
H2090       H  0.11947050  0.93805696  0.29684697     0.09100
H2091       H  0.12054582  0.90299294  0.28398458     0.09100
H2092       H  0.10705590  0.91097339  0.31648673     0.05800
C2093       C  0.91526524  0.23316875  0.17242452    -0.20000
C2094       C  0.89642755  0.21964622  0.15593365    -0.06500
C2095       C  0.90357857  0.21175676  0.12931387     0.14300
C2096       C  0.93002680  0.21564302  0.12087836    -0.20000
C2097       C  0.94914460  0.22774926  0.13798707    -0.06500
C2098       C  0.94152652  0.23760261  0.16365687     0.14300
C2099       C  0.96029827  0.25316183  0.18211858    -0.23400
H2100       H  0.90976566  0.23967052  0.19263839     0.15600
H2101       H  0.93600656  0.20887723  0.10088699     0.15600
C2102       C  0.88359271  0.19977960  0.10940920    -0.23300
H2103       H  0.95100201  0.27312145  0.18725923     0.05900
H2104       H  0.98007308  0.25731162  0.17284443     0.09100
H2105       H  0.96374666  0.24152867  0.20105675     0.09100
H2106       H  0.86549529  0.21317535  0.10783078     0.09100
H2107       H  0.87764888  0.17913296  0.11576977     0.09100
H2108       H  0.89225096  0.19780072  0.08884153     0.05800
C2109       C  0.24290701  0.14021278  0.09993685    -0.20000
C2110       C  0.21501800  0.13675001  0.10450300    -0.06500
C2111       C  0.19974485  0.12357059  0.08402191     0.14300
C2112       C  0.21248597  0.11505325  0.05972680    -0.20000
C2113       C  0.24008797  0.11980500  0.05490357    -0.06500
C2114       C  0.25539311  0.13244363  0.07559102     0.14300
C2115       C  0.28481462  0.13911010  0.07240174    -0.23400
H2116       H  0.25522164  0.15003119  0.11531898     0.15600
H2117       H  0.20056375  0.10542028  0.04396431     0.15600
C2118       C  0.16987985  0.11969130  0.08704366    -0.23300
H2119       H  0.29687916  0.12839063  0.08818930     0.05900
H2120       H  0.28762401  0.16136082  0.07484137     0.09100
H2121       H  0.29288581  0.13321250  0.05239661     0.09100
H2122       H  0.15978174  0.13972908  0.08991773     0.09100
H2123       H  0.16597680  0.10660679  0.10477445     0.09100
H2124       H  0.16082862  0.10982737  0.06888270     0.05800
C2125       C  0.12268909  0.06081470  0.25682898    -0.20000
C2126       C  0.11599214  0.04101577  0.23726899    -0.06500
C2127       C  0.11957788  0.04863646  0.20965383     0.14300
C2128       C  0.12992064  0.07469621  0.20272742    -0.20000
C2129       C  0.13627352  0.09464413  0.22232764    -0.06500
C2130       C  0.13238503  0.08707968  0.24997579     0.14300
C2131       C  0.13927937  0.10623646  0.27290234    -0.23400
H2132       H  0.12111624  0.05542842  0.27793592     0.15600
H2133       H  0.13204718  0.07979449  0.18155870     0.15600
C2134       C  0.11170313  0.03017536  0.18657478    -0.23300
H2135       H  0.13747394  0.09631413  0.29293084     0.05900
H2136       H  0.12523046  0.12391256  0.27289399     0.09100
H2137       H  0.16039366  0.11326509  0.27094599     0.09100
H2138       H  0.09654514  0.04064897  0.17351388     0.09100
H2139       H  0.10260561  0.01094960  0.19340641     0.09100
H2140       H  0.12974298  0.02529047  0.17428011     0.05800
C2141       C  0.07668917  0.17461013  0.13986443    -0.20000
C2142       C  0.09472613  0.19169490  0.15345696    -0.06500
C2143       C  0.09024301  0.22016029  0.15337530     0.14300
C2144       C  0.06634112  0.23066870  0.14209158    -0.20000
C2145       C  0.04709347  0.21334462  0.13068713    -0.06500
C2146       C  0.05295665  0.18521365  0.12813046     0.14300
C2147       C  0.03444679  0.16590671  0.11342366    -0.23400
H2148       H  0.08052240  0.15288121  0.13939091     0.15600
H2149       H  0.06199437  0.25227118  0.14340696     0.15600
C2150       C  0.11048624  0.23944112  0.16568552    -0.23300
H2151       H  0.02731116  0.15021830  0.12765196     0.05900
H2152       H  0.04565032  0.15573254  0.09682075     0.09100
H2153       H  0.01664852  0.17625681  0.10424426     0.09100
H2154       H  0.13029690  0.23657391  0.15572773     0.09100
H2155       H  0.11282031  0.23561187  0.18768597     0.09100
H2156       H  0.10416309  0.26099750  0.16307312     0.05800
C2157       C  0.84480177  0.78517442  0.29049092    -0.20000
C2158       C  0.84451499  0.76735388  0.26816463    -0.06500
C2159       C  0.85455949  0.74058226  0.27114753     0.14300
C2160       C  0.86461644  0.73236682  0.29641506    -0.20000
C2161       C  0.86489203  0.75017474  0.31863130    -0.06500
C2162       C  0.85489803  0.77690075  0.31572278     0.14300
C2163       C  0.85481713  0.79669345  0.33904253    -0.23400
H2164       H  0.83733625  0.80582163  0.28805519     0.15600
H2165       H  0.87241922  0.71187435  0.29888823     0.15600
C2166       C  0.85579434  0.72098744  0.24765229    -0.23300
H2167       H  0.84560687  0.81653544  0.33328501     0.05900
H2168       H  0.87575047  0.80050181  0.34597941     0.09100
H2169       H  0.84315582  0.78834702  0.35599707     0.09100
H2170       H  0.86783302  0.72984526  0.23111207     0.09100
H2171       H  0.83510153  0.71658357  0.24014798     0.09100
H2172       H  0.86538589  0.70135622  0.25350463     0.05800
C2173       C  0.82308544  0.88666399  0.04183042    -0.20000
C2174       C  0.79578240  0.87983870  0.03852077    -0.06500
C2175       C  0.78100772  0.87064131  0.06078972     0.14300
C2176       C  0.79409225  0.86805330  0.08576764    -0.20000
C2177       C  0.82168685  0.87374806  0.08894546    -0.06500
C2178       C  0.83612060  0.88430575  0.06705941     0.14300
C2179       C  0.86523991  0.89215367  0.06998239    -0.23400
H2180       H  0.83430498  0.89352398  0.02448273     0.15600
H2181       H  0.78298509  0.85990953  0.10265830     0.15600
C2182       C  0.75205972  0.86165038  0.05867553    -0.23300
H2183       H  0.87348355  0.89979584  0.05067679     0.05900
H2184       H  0.87739091  0.87430065  0.07629270     0.09100
H2185       H  0.86724977  0.90845440  0.08546291     0.09100
H2186       H  0.75051718  0.84029643  0.06563698     0.09100
H2187       H  0.74389318  0.86236426  0.03776171     0.09100
H2188       H  0.73929548  0.87482002  0.07172877     0.05800
C2189       C  0.84305348  0.93092053  0.26389231    -0.20000
C2190       C  0.84858956  0.95275251  0.24680804    -0.06500
C2191       C  0.85778330  0.94759654  0.22021646     0.14300
C2192       C  0.86341576  0.92099168  0.21239648    -0.20000
C2193       C  0.86089099  0.89957361  0.23050593    -0.06500
C2194       C  0.85024339  0.90438965  0.25660609     0.14300
C2195       C  0.84870059  0.88237113  0.27772874    -0.23400
H2196       H  0.83667644  0.93512708  0.28443315     0.15600
H2197       H  0.87046511  0.91699698  0.19205717     0.15600
C2198       C  0.86466899  0.96968337  0.20066952    -0.23300
H2199       H  0.84278644  0.89069078  0.29775960     0.05900
H2200       H  0.86876502  0.87239493  0.28020459     0.09100
H2201       H  0.83345933  0.86701219  0.27195869     0.09100
H2202       H  0.87682936  0.98566238  0.21073472     0.09100
H2203       H  0.84577237  0.97784824  0.19174502     0.09100
H2204       H  0.87678271  0.96185049  0.18348284     0.05800
C2205       C  0.00504517  0.82824850  0.19050495    -0.20000
C2206       C  0.01252116  0.81184625  0.21268338    -0.06500
C2207       C  0.02187747  0.78508866  0.20714699     0.14300
C2208       C  0.02187518  0.77501304  0.18024946    -0.20000
C2209       C  0.01372985  0.79107452  0.15805052    -0.06500
C2210       C  0.00587174  0.81842045  0.16345391     0.14300
C2211       C  0.99887623  0.83803885  0.14120935    -0.23400
H2212       H  0.99847339  0.84896935  0.19433273     0.15600
H2213       H  0.02820190  0.75423824  0.17646498     0.15600
C2214       C  0.03311025  0.76745080  0.22945720    -0.23300
H2215       H  0.01202177  0.85612931  0.14289328     0.05900
H2216       H  0.97752946  0.84473507  0.14314240     0.09100
H2217       H  0.00178323  0.82910877  0.12084057     0.09100
H2218       H  0.01715346  0.76249688  0.24411011     0.09100
H2219       H  0.04976143  0.77821811  0.24008673     0.09100
H2220       H  0.04134802  0.74796536  0.22146448     0.05800
C2221       C  0.92671346  0.78780184  0.15002824    -0.20000
C2222       C  0.91696267  0.80960942  0.13448043    -0.06500
C2223       C  0.93081913  0.81709163  0.11094061     0.14300
C2224       C  0.95456565  0.80314572  0.10391799    -0.20000
C2225       C  0.96518688  0.78229406  0.12022051    -0.06500
C2226       C  0.95084970  0.77426204  0.14343627     0.14300
C2227       C  0.96032688  0.75165833  0.16173905    -0.23400
H2228       H  0.91573681  0.78170328  0.16783347     0.15600
H2229       H  0.96570050  0.80953670  0.08634393     0.15600
C2230       C  0.92036287  0.83948448  0.09301158    -0.23300
H2231       H  0.96333991  0.75971382  0.18257030     0.05900
H2232       H  0.97953996  0.74224076  0.15512709     0.09100
H2233       H  0.94482313  0.73552438  0.16218420     0.09100
H2234       H  0.91929466  0.85886420  0.10456662     0.09100
H2235       H  0.89997353  0.83400597  0.08541160     0.09100
H2236       H  0.93353743  0.84264717  0.07528744     0.05800
C2237       C  0.18824468  0.75901628  0.30146653    -0.20000
C2238       C  0.18941790  0.78738481  0.30222063    -0.06500
C2239       C  0.18275574  0.80189585  0.32585587     0.14300
C2240       C  0.17488346  0.78734546  0.34853680    -0.20000
C2241       C  0.17245803  0.75900808  0.34733931    -0.06500
C2242       C  0.17873517  0.74465152  0.32345283     0.14300
C2243       C  0.17379209  0.71472812  0.31968036    -0.23400
H2244       H  0.19271396  0.74816717  0.28284210     0.15600
H2245       H  0.17024952  0.79807182  0.36715684     0.15600
C2246       C  0.18421579  0.83245136  0.32723293    -0.23300
H2247       H  0.16134991  0.71141695  0.30115843     0.05900
H2248       H  0.16245095  0.70597906  0.33659629     0.09100
H2249       H  0.19333339  0.70378343  0.31740557     0.09100
H2250       H  0.16958419  0.84165035  0.31272914     0.09100
H2251       H  0.20491496  0.83908434  0.32222378     0.09100
H2252       H  0.17930997  0.84026539  0.34773884     0.05800
C2253       C  0.07532692  0.75701085  0.14648880    -0.20000
C2254       C  0.06414853  0.77660361  0.12899466    -0.06500
C2255       C  0.07488364  0.80315566  0.12944313     0.14300
C2256       C  0.09607000  0.80944869  0.14736871    -0.20000
C2257       C  0.10601602  0.79049549  0.16623844    -0.06500
C2258       C  0.09564556  0.76373995  0.16553653     0.14300
C2259       C  0.10573005  0.74222870  0.18479879    -0.23400
H2260       H  0.06663752  0.73687110  0.14666634     0.15600
H2261       H  0.10407020  0.82989670  0.14740713     0.15600
C2262       C  0.06374991  0.82583944  0.11220285    -0.23300
H2263       H  0.09607465  0.72230369  0.18079136     0.05900
H2264       H  0.10097645  0.74823203  0.20590018     0.09100
H2265       H  0.12786693  0.73952460  0.18267619     0.09100
H2266       H  0.04621338  0.81960220  0.09974149     0.09100
H2267       H  0.07971963  0.83317855  0.09853705     0.09100
H2268       H  0.05721001  0.84295463  0.12536948     0.05800
C2269       C  0.15904289  0.90542040  0.23940594    -0.20000
C2270       C  0.14308392  0.88798263  0.22376374    -0.06500
C2271       C  0.11675174  0.89651483  0.21605972     0.14300
C2272       C  0.10699790  0.92226167  0.22439190    -0.20000
C2273       C  0.12254641  0.93937141  0.24112455    -0.06500
C2274       C  0.14901582  0.93053248  0.24875611     0.14300
C2275       C  0.16630437  0.94551012  0.26901631    -0.23400
H2276       H  0.17892338  0.89858826  0.24594670     0.15600
H2277       H  0.08702615  0.92897056  0.21808400     0.15600
C2278       C  0.09909929  0.87856440  0.19872477    -0.23300
H2279       H  0.17106906  0.93196434  0.28635737     0.05900
H2280       H  0.15607889  0.96372720  0.27736087     0.09100
H2281       H  0.18554736  0.95143914  0.25952708     0.09100
H2282       H  0.09504638  0.85924427  0.20937614     0.09100
H2283       H  0.10937936  0.87398474  0.17935547     0.09100
H2284       H  0.07938823  0.88846055  0.19398767     0.05800
C2285       C  0.24024443  0.84835282  0.10965911    -0.20000
C2286       C  0.21247778  0.84868190  0.11460893    -0.06500
C2287       C  0.19450239  0.86314733  0.09770574     0.14300
C2288       C  0.20500596  0.87674584  0.07566364    -0.20000
C2289       C  0.23264676  0.87543694  0.07015491    -0.06500
C2290       C  0.25057742  0.86093647  0.08710646     0.14300
C2291       C  0.28015366  0.85664469  0.08140231    -0.23400
H2292       H  0.25395325  0.83731849  0.12299044     0.15600
H2293       H  0.19149139  0.88761409  0.06206372     0.15600
C2294       C  0.16440420  0.86309123  0.10187287    -0.23300
H2295       H  0.29241478  0.86569581  0.09801987     0.05900
H2296       H  0.28654662  0.86549091  0.06203140     0.09100
H2297       H  0.28466797  0.83451633  0.08036776     0.09100
H2298       H  0.15940833  0.87308286  0.12138183     0.09100
H2299       H  0.15699564  0.84185245  0.10186964     0.09100
H2300       H  0.15348194  0.87425243  0.08556505     0.05800
C2301       C  0.01190261  0.79997598  0.81524876    -0.20000
C2302       C  0.02064669  0.77352279  0.80919809    -0.06500
C2303       C  0.02617773  0.76631175  0.78226142     0.14300
C2304       C  0.02394495  0.78609798  0.76215850    -0.20000
C2305       C  0.01756316  0.81331241  0.76849188    -0.06500
C2306       C  0.01148879  0.82033511  0.79559259     0.14300
C2307       C  0.00681542  0.84926597  0.80470217    -0.23400
H2308       H  0.00669425  0.80518814  0.83576600     0.15600
H2309       H  0.02810397  0.78038598  0.74141710     0.15600
C2310       C  0.03464578  0.73796037  0.77422239    -0.23300
H2311       H  0.00689435  0.85106896  0.82711380     0.05900
H2312       H  0.98681688  0.85669127  0.79765188     0.09100
H2313       H  0.02313788  0.86243285  0.79713022     0.09100
H2314       H  0.03529991  0.72373115  0.79153805     0.09100
H2315       H  0.05504013  0.73847014  0.76516737     0.09100
H2316       H  0.02013132  0.72982248  0.75902633     0.05800
C2317       C  0.15488372  0.78416012  0.72724380    -0.20000
C2318       C  0.17751918  0.80020971  0.73172742    -0.06500
C2319       C  0.19235650  0.81059440  0.71014192     0.14300
C2320       C  0.18363445  0.80499289  0.68388484    -0.20000
C2321       C  0.16076439  0.78908782  0.67928163    -0.06500
C2322       C  0.14657679  0.77778395  0.70112545     0.14300
C2323       C  0.12317464  0.75855575  0.69804338    -0.23400
H2324       H  0.14336137  0.77693150  0.74423599     0.15600
H2325       H  0.19470753  0.81287809  0.66688499     0.15600
C2326       C  0.21689500  0.82790688  0.71492819    -0.23300
H2327       H  0.12747726  0.73971031  0.70963318     0.05900
H2328       H  0.11914102  0.75229385  0.67691034     0.09100
H2329       H  0.10466646  0.76824396  0.70629950     0.09100
H2330       H  0.23218704  0.81626753  0.72680943     0.09100
H2331       H  0.21121894  0.84657362  0.72632104     0.09100
H2332       H  0.22622129  0.83413058  0.69561544     0.05800
C2333       C  0.09562529  0.74892835  0.82451863    -0.20000
C2334       C  0.07433652  0.76283255  0.83678339    -0.06500
C2335       C  0.07742879  0.79019073  0.84517036     0.14300
C2336       C  0.10123154  0.80345052  0.83935468    -0.20000
C2337       C  0.12238253  0.78989930  0.82642772    -0.06500
C2338       C  0.11992270  0.76202944  0.81943186     0.14300
C2339       C  0.14231138  0.74604864  0.80615733    -0.23400
H2340       H  0.09313889  0.72775233  0.81890021     0.15600
H2341       H  0.10341817  0.82458192  0.84533363     0.15600
C2342       C  0.05701447  0.80584592  0.86149969    -0.23300
H2343       H  0.13607736  0.72499063  0.80105635     0.05900
H2344       H  0.15992375  0.74455900  0.82012629     0.09100
H2345       H  0.14834303  0.75605129  0.78714524     0.09100
H2346       H  0.06614106  0.81182840  0.88123581     0.09100
H2347       H  0.03885355  0.79399551  0.86572355     0.09100
H2348       H  0.05087179  0.82457826  0.85052275     0.05800
C2349       C  0.21419985  0.88090557  0.93442163    -0.20000
C2350       C  0.23307911  0.86229757  0.92422694    -0.06500
C2351       C  0.25810208  0.85799402  0.93763935     0.14300
C2352       C  0.26236982  0.87038337  0.96255236    -0.20000
C2353       C  0.24253419  0.88706669  0.97368739    -0.06500
C2354       C  0.21881934  0.89368368  0.95919121     0.14300
C2355       C  0.19862667  0.91421237  0.96960017    -0.23400
H2356       H  0.19566332  0.88499401  0.92325982     0.15600
H2357       H  0.28060415  0.86592441  0.97406292     0.15600
C2358       C  0.28049369  0.84078929  0.92584752    -0.23300
H2359       H  0.18039100  0.91537189  0.95638909     0.05900
H2360       H  0.20781393  0.93461862  0.97011644     0.09100
H2361       H  0.19213419  0.90913343  0.99025315     0.09100
H2362       H  0.28558090  0.84841236  0.90547486     0.09100
H2363       H  0.27439399  0.81919336  0.92450612     0.09100
H2364       H  0.29912639  0.84155918  0.93851153     0.05800
C2365       C  0.10157531  0.96981381  0.76395702    -0.20000
C2366       C  0.11567318  0.98953509  0.74957913    -0.06500
C2367       C  0.11530257  0.98823418  0.72087653     0.14300
C2368       C  0.09985291  0.96813583  0.70764266    -0.20000
C2369       C  0.08645791  0.94811078  0.72228184    -0.06500
C2370       C  0.08835561  0.94840870  0.75077996     0.14300
C2371       C  0.07773731  0.92578779  0.76786012    -0.23400
H2372       H  0.10119228  0.97064125  0.78574846     0.15600
H2373       H  0.09853243  0.96780905  0.68574578     0.15600
C2374       C  0.13160169  0.00690556  0.70352364    -0.23300
H2375       H  0.06227466  0.93386947  0.78187389     0.05900
H2376       H  0.09454827  0.91700373  0.78011777     0.09100
H2377       H  0.06921845  0.90902586  0.75554351     0.09100
H2378       H  0.14484887  0.02057458  0.71538804     0.09100
H2379       H  0.11782297  0.01947674  0.69078270     0.09100
H2380       H  0.14484654  0.99458901  0.69014426     0.05800
C2381       C  0.18914003  0.93506612  0.79671658    -0.20000
C2382       C  0.17302774  0.92569796  0.81781829    -0.06500
C2383       C  0.15103332  0.94135759  0.82690329     0.14300
C2384       C  0.14549378  0.96618017  0.81442259    -0.20000
C2385       C  0.16080374  0.97506059  0.79253452    -0.06500
C2386       C  0.18313346  0.95960862  0.78374211     0.14300
C2387       C  0.20069778  0.96823741  0.76068764    -0.23400
H2388       H  0.20587348  0.92266382  0.78964194     0.15600
H2389       H  0.12911957  0.97881688  0.82184079     0.15600
C2390       C  0.13382155  0.93218207  0.85002679    -0.23300
H2391       H  0.20049212  0.95231281  0.74469452     0.05900
H2392       H  0.22173338  0.97088006  0.76813420     0.09100
H2393       H  0.19386139  0.98756895  0.75131919     0.09100
H2394       H  0.14668286  0.92883187  0.86825878     0.09100
H2395       H  0.12346110  0.91299169  0.84457006     0.09100
H2396       H  0.11810025  0.94753723  0.85516756     0.05800
C2397       C  0.17918367  0.08814038  0.77451547    -0.20000
C2398       C  0.15927289  0.07422322  0.78865022    -0.06500
C2399       C  0.14783245  0.08599858  0.81199457     0.14300
C2400       C  0.15649930  0.11144736  0.82060378    -0.20000
C2401       C  0.17730767  0.12487610  0.80741462    -0.06500
C2402       C  0.18874604  0.11328777  0.78388612     0.14300
C2403       C  0.21209197  0.12628493  0.76975734    -0.23400
H2404       H  0.18820633  0.07862314  0.75692592     0.15600
H2405       H  0.14782520  0.12029791  0.83872941     0.15600
C2406       C  0.12751731  0.07197283  0.82927108    -0.23300
H2407       H  0.21926689  0.11369173  0.75251260     0.05900
H2408       H  0.22924243  0.12880474  0.78417232     0.09100
H2409       H  0.20585750  0.14642247  0.76169454     0.09100
H2410       H  0.12303467  0.05128753  0.82203904     0.09100
H2411       H  0.10850236  0.08407154  0.82954097     0.09100
H2412       H  0.13544865  0.07025205  0.85028749     0.05800
C2413       C  0.23913779  0.14433811  0.91728548    -0.20000
C2414       C  0.26342686  0.15143523  0.90482692    -0.06500
C2415       C  0.28791425  0.14921423  0.91936229     0.14300
C2416       C  0.28727085  0.14027307  0.94628268    -0.20000
C2417       C  0.26287220  0.13258212  0.95819422    -0.06500
C2418       C  0.23858701  0.13411507  0.94328690     0.14300
C2419       C  0.21185011  0.12380813  0.95312573    -0.23400
H2420       H  0.22015221  0.14565852  0.90631038     0.15600
H2421       H  0.30588037  0.13863201  0.95788343     0.15600
C2422       C  0.31453544  0.15483105  0.90626004    -0.23300
H2423       H  0.20397635  0.10838449  0.93865505     0.05900
H2424       H  0.19711363  0.14090927  0.95418594     0.09100
H2425       H  0.21315219  0.11393415  0.97311628     0.09100
H2426       H  0.31529554  0.17639225  0.89985852     0.09100
H2427       H  0.31706675  0.14139834  0.88831853     0.09100
H2428       H  0.33173601  0.15094921  0.92034864     0.05800
C2429       C  0.10322904  0.25002809  0.87398027    -0.20000
C2430       C  0.08901285  0.23319372  0.89134844    -0.06500
C2431       C  0.10003375  0.20817604  0.89984699     0.14300
C2432       C  0.12488415  0.20000815  0.88971077    -0.20000
C2433       C  0.13866694  0.21610240  0.87108441    -0.06500
C2434       C  0.12790902  0.24166622  0.86331810     0.14300
C2435       C  0.14210629  0.26028872  0.84404176    -0.23400
H2436       H  0.09436649  0.26919690  0.86769356     0.15600
H2437       H  0.13320663  0.18052331  0.89593651     0.15600
C2438       C  0.08612591  0.18957701  0.91935419    -0.23300
H2439       H  0.13132051  0.28005787  0.84181312     0.05900
H2440       H  0.14304708  0.25084713  0.82363135     0.09100
H2441       H  0.16281099  0.26453363  0.85164806     0.09100
H2442       H  0.06649646  0.19770487  0.92641965     0.09100
H2443       H  0.09925097  0.18641153  0.93743401     0.09100
H2444       H  0.08244817  0.16962757  0.90944735     0.05800
C2445       C  0.96416737  0.93992497  0.75690077    -0.20000
C2446       C  0.94019386  0.94612473  0.74307206    -0.06500
C2447       C  0.93662622  0.93523151  0.71678039     0.14300
C2448       C  0.95797867  0.92075305  0.70438448    -0.20000
C2449       C  0.98165054  0.91258197  0.71862860    -0.06500
C2450       C  0.98427290  0.92283124  0.74575854     0.14300
C2451       C  0.00780893  0.91700667  0.76430020    -0.23400
H2452       H  0.96702447  0.94809805  0.77714499     0.15600
H2453       H  0.95569903  0.91634902  0.68314060     0.15600
C2454       C  0.91040632  0.93779940  0.70127979    -0.23300
H2455       H  0.00061167  0.90642105  0.78259638     0.05900
H2456       H  0.01693567  0.93655131  0.77067343     0.09100
H2457       H  0.02371634  0.90446734  0.75511921     0.09100
H2458       H  0.89457006  0.94860643  0.71282950     0.09100
H2459       H  0.90270531  0.91717475  0.69651969     0.09100
H2460       H  0.91366995  0.94867726  0.68199838     0.05800
C2461       C  0.90146308  0.02508246  0.82376446    -0.20000
C2462       C  0.89903734  0.02542149  0.79531151    -0.06500
C2463       C  0.89181815  0.05003685  0.78243335     0.14300
C2464       C  0.88652712  0.07320123  0.79827404    -0.20000
C2465       C  0.88680185  0.07223873  0.82669287    -0.06500
C2466       C  0.89460235  0.04795979  0.83962852     0.14300
C2467       C  0.89425305  0.04582358  0.86997090    -0.23400
H2468       H  0.90751509  0.00638979  0.83368336     0.15600
H2469       H  0.87990954  0.09174244  0.78831430     0.15600
C2470       C  0.88748296  0.05232108  0.75233580    -0.23300
H2471       H  0.90071689  0.02530537  0.87689433     0.05900
H2472       H  0.87350009  0.04972497  0.87740317     0.09100
H2473       H  0.90812889  0.06104170  0.87900544     0.09100
H2474       H  0.90241540  0.06655137  0.74384822     0.09100
H2475       H  0.88926085  0.03260536  0.74170797     0.09100
H2476       H  0.86683393  0.06027426  0.74811278     0.05800
C2477       C  0.95567062  0.19171484  0.90404423    -0.20000
C2478       C  0.94845405  0.19017151  0.87642869    -0.06500
C2479       C  0.96331097  0.20594899  0.85770228     0.14300
C2480       C  0.98289955  0.22382857  0.86705289    -0.20000
C2481       C  0.99088848  0.22484450  0.89415513    -0.06500
C2482       C  0.97727661  0.20840161  0.91298353     0.14300
C2483       C  0.98598920  0.20801387  0.94220998    -0.23400
H2484       H  0.94445944  0.18002542  0.91856587     0.15600
H2485       H  0.99350318  0.23610770  0.85255223     0.15600
C2486       C  0.95973096  0.20368633  0.82734047    -0.23300
H2487       H  0.97359891  0.19387264  0.95421713     0.05900
H2488       H  0.98382927  0.22868652  0.95106581     0.09100
H2489       H  0.00741387  0.20135165  0.94383717     0.09100
H2490       H  0.94131379  0.21480111  0.82057297     0.09100
H2491       H  0.95862315  0.18195879  0.82134758     0.09100
H2492       H  0.97691701  0.21266425  0.81636018     0.05800
C2493       C  0.79597307  0.13961200  0.92764761    -0.20000
C2494       C  0.82337785  0.13177048  0.92669822    -0.06500
C2495       C  0.83618519  0.12305817  0.95076409     0.14300
C2496       C  0.82111945  0.12183115  0.97485609    -0.20000
C2497       C  0.79354784  0.12926284  0.97562556    -0.06500
C2498       C  0.78102329  0.13867225  0.95161805     0.14300
C2499       C  0.75206781  0.14814300  0.95040697    -0.23400
H2500       H  0.78595515  0.14646878  0.90926329     0.15600
H2501       H  0.83084705  0.11454970  0.99317856     0.15600
C2502       C  0.86529199  0.11416392  0.95085523    -0.23300
H2503       H  0.74069886  0.13553270  0.93556879     0.05900
H2504       H  0.75120151  0.16968568  0.94382532     0.09100
H2505       H  0.74185755  0.14678164  0.97012470     0.09100
H2506       H  0.87816956  0.13131135  0.94457628     0.09100
H2507       H  0.86806318  0.09688165  0.93658435     0.09100
H2508       H  0.87210466  0.10752420  0.97127640     0.05800
C2509       C  0.87920794  0.75302243  0.70807758    -0.20000
C2510       C  0.87356519  0.77784845  0.72040379    -0.06500
C2511       C  0.86928153  0.80155177  0.70496504     0.14300
C2512       C  0.86760073  0.79904712  0.67695019    -0.20000
C2513       C  0.87117812  0.77368265  0.66463398    -0.06500
C2514       C  0.87903741  0.75078016  0.68017160     0.14300
C2515       C  0.88853126  0.72416608  0.66840384    -0.23400
H2516       H  0.88302207  0.73514055  0.72036450     0.15600
H2517       H  0.86326302  0.81674893  0.66460543     0.15600
C2518       C  0.86506889  0.82905180  0.71793655    -0.23300
H2519       H  0.87497300  0.70759433  0.67478167     0.05900
H2520       H  0.90927385  0.71958769  0.67588992     0.09100
H2521       H  0.88934128  0.72453141  0.64619407     0.09100
H2522       H  0.88298851  0.83431060  0.73051317     0.09100
H2523       H  0.84689030  0.82884651  0.73079575     0.09100
H2524       H  0.86220124  0.84526854  0.70259019     0.05800
C2525       C  0.77752886  0.83184826  0.90426924    -0.20000
C2526       C  0.79349287  0.84937371  0.88894988    -0.06500
C2527       C  0.80149893  0.87472319  0.89964359     0.14300
C2528       C  0.79543808  0.88072874  0.92623652    -0.20000
C2529       C  0.78081018  0.86276973  0.94199031    -0.06500
C2530       C  0.77122181  0.83821277  0.93103647     0.14300
C2531       C  0.75516817  0.81848909  0.94748348    -0.23400
H2532       H  0.77131148  0.81247824  0.89586593     0.15600
H2533       H  0.80288985  0.89939168  0.93510150     0.15600
C2534       C  0.81638384  0.89571262  0.88351877    -0.23300
H2535       H  0.74830116  0.80093994  0.93505625     0.05900
H2536       H  0.73710737  0.82861676  0.95606868     0.09100
H2537       H  0.76777943  0.81037865  0.96421735     0.09100
H2538       H  0.80553031  0.89969679  0.86415803     0.09100
H2539       H  0.83738438  0.88895599  0.87958441     0.09100
H2540       H  0.81773128  0.91525430  0.89471283     0.05800
C2541       C  0.86514969  0.88826193  0.78258038    -0.20000
C2542       C  0.88311529  0.87663717  0.80146779    -0.06500
C2543       C  0.90700714  0.89020045  0.80886871     0.14300
C2544       C  0.91165929  0.91586979  0.79801867    -0.20000
C2545       C  0.89320512  0.92776700  0.77981495    -0.06500
C2546       C  0.86999344  0.91367996  0.77149700     0.14300
C2547       C  0.85007164  0.92469900  0.75105671    -0.23400
H2548       H  0.84695988  0.87755438  0.77665580     0.15600
H2549       H  0.92944525  0.92703079  0.80424956     0.15600
C2550       C  0.92776597  0.87756366  0.82756001    -0.23300
H2551       H  0.84787699  0.90998189  0.73408615     0.05900
H2552       H  0.85651691  0.94419213  0.74233489     0.09100
H2553       H  0.83014766  0.92775874  0.76073014     0.09100
H2554       H  0.93434112  0.85753844  0.81935998     0.09100
H2555       H  0.91914914  0.87482081  0.84797033     0.09100
H2556       H  0.94591291  0.89050689  0.82977724     0.05800
C2557       C  0.93271269  0.75007945  0.83032644    -0.20000
C2558       C  0.92655840  0.77316564  0.84605063    -0.06500
C2559       C  0.94627862  0.78449840  0.86341103     0.14300
C2560       C  0.97216972  0.77327054  0.86335728    -0.20000
C2561       C  0.97858604  0.75133272  0.84644178    -0.06500
C2562       C  0.95873286  0.73908066  0.83024320     0.14300
C2563       C  0.96524378  0.71506073  0.81241126    -0.23400
H2564       H  0.91734829  0.74129890  0.81726538     0.15600
H2565       H  0.98787868  0.78250340  0.87552747     0.15600
C2566       C  0.94080932  0.80925968  0.88068039    -0.23300
H2567       H  0.94718918  0.70793202  0.80102354     0.05900
H2568       H  0.97299497  0.69799743  0.82497437     0.09100
H2569       H  0.98083131  0.72076728  0.79758007     0.09100
H2570       H  0.92505775  0.80466359  0.89573208     0.09100
H2571       H  0.93402865  0.82644333  0.86774284     0.09100
H2572       H  0.95911947  0.81581556  0.89201616     0.05800
C2573       C  0.51900883  0.31170374  0.65612165    -0.20000
C2574       C  0.51614162  0.28794110  0.67145221    -0.06500
C2575       C  0.50983189  0.29039695  0.69938829     0.14300
C2576       C  0.50649598  0.31628599  0.71070570    -0.20000
C2577       C  0.51167126  0.33975137  0.69592773    -0.06500
C2578       C  0.51761067  0.33751936  0.66817327     0.14300
C2579       C  0.52357235  0.36182623  0.65104431    -0.23400
H2580       H  0.52349333  0.31008454  0.63476825     0.15600
H2581       H  0.50252516  0.31836360  0.73214230     0.15600
C2582       C  0.50948809  0.26654173  0.71847702    -0.23300
H2583       H  0.54374981  0.35933428  0.64175340     0.05900
H2584       H  0.52362476  0.38092630  0.66293043     0.09100
H2585       H  0.50817031  0.36360999  0.63466721     0.09100
H2586       H  0.52664292  0.25250089  0.71437272     0.09100
H2587       H  0.48995741  0.25584580  0.71698033     0.09100
H2588       H  0.51161459  0.27321757  0.73989547     0.05800
C2589       C  0.57007960  0.24437189  0.58057994    -0.20000
C2590       C  0.57052950  0.21724726  0.59002448    -0.06500
C2591       C  0.58740767  0.19859763  0.57539546     0.14300
C2592       C  0.60545144  0.20815785  0.55566749    -0.20000
C2593       C  0.60542704  0.23526858  0.54716675    -0.06500
C2594       C  0.58693297  0.25342775  0.55949251     0.14300
C2595       C  0.58426095  0.28230636  0.54983510    -0.23400
H2596       H  0.55525921  0.25843589  0.58833490     0.15600
H2597       H  0.61893890  0.19381492  0.54599436     0.15600
C2598       C  0.58618625  0.16809534  0.57817417    -0.23300
H2599       H  0.56838343  0.29371705  0.56093662     0.05900
H2600       H  0.57886823  0.28250076  0.52799335     0.09100
H2601       H  0.60354845  0.29305064  0.55298525     0.09100
H2602       H  0.56880881  0.16087982  0.58978597     0.09100
H2603       H  0.60518905  0.16040093  0.58757985     0.09100
H2604       H  0.58398976  0.15871791  0.55778703     0.05800
C2605       C  0.46913381  0.23451877  0.55179816    -0.20000
C2606       C  0.46589315  0.20705795  0.55874170    -0.06500
C2607       C  0.44275109  0.19330436  0.54893560     0.14300
C2608       C  0.42312765  0.20770612  0.53364558    -0.20000
C2609       C  0.42655107  0.23520000  0.52695784    -0.06500
C2610       C  0.45039710  0.24837894  0.53543790     0.14300
C2611       C  0.45735062  0.27677708  0.52708522    -0.23400
H2612       H  0.48670189  0.24538639  0.55909176     0.15600
H2613       H  0.40525738  0.19724471  0.52645126     0.15600
C2614       C  0.43864207  0.16338775  0.55326652    -0.23300
H2615       H  0.45861064  0.29010697  0.54522448     0.05900
H2616       H  0.44255883  0.28544726  0.51273125     0.09100
H2617       H  0.47718209  0.27657451  0.51683356     0.09100
H2618       H  0.42025789  0.16028151  0.56546270     0.09100
H2619       H  0.45600172  0.15344669  0.56360419     0.09100
H2620       H  0.43599393  0.15311742  0.53336691     0.05800
C2621       C  0.81347213  0.98957096  0.80111260    -0.20000
C2622       C  0.81263169  0.98475343  0.82909748    -0.06500
C2623       C  0.83706926  0.97725652  0.84260325     0.14300
C2624       C  0.86072813  0.97283216  0.82749000    -0.20000
C2625       C  0.86132493  0.97792204  0.79965338    -0.06500
C2626       C  0.83753146  0.98719874  0.78653373     0.14300
C2627       C  0.83698742  0.99555143  0.75726515    -0.23400
H2628       H  0.79522043  0.99577587  0.79049928     0.15600
H2629       H  0.87928002  0.96671569  0.83762054     0.15600
C2630       C  0.83923530  0.97630159  0.87296767    -0.23300
H2631       H  0.83106295  0.01732132  0.75581737     0.05900
H2632       H  0.82196039  0.98319513  0.74596533     0.09100
H2633       H  0.85674564  0.99295354  0.74727910     0.09100
H2634       H  0.82870346  0.95841048  0.88081240     0.09100
H2635       H  0.83064590  0.99522394  0.88185125     0.09100
H2636       H  0.86057228  0.97458184  0.87990973     0.05800
C2637       C  0.72042743  0.92968010  0.91736542    -0.20000
C2638       C  0.73756025  0.95140012  0.91053659    -0.06500
C2639       C  0.76094209  0.95530629  0.92743919     0.14300
C2640       C  0.76686796  0.93700077  0.94838971    -0.20000
C2641       C  0.75037446  0.91502049  0.95416596    -0.06500
C2642       C  0.72683950  0.91125596  0.93839035     0.14300
C2643       C  0.70827511  0.88799508  0.94391364    -0.23400
H2644       H  0.70130576  0.92741183  0.90707197     0.15600
H2645       H  0.78530473  0.93950259  0.96003052     0.15600
C2646       C  0.78031452  0.97872813  0.92549747    -0.23300
H2647       H  0.69017654  0.88843303  0.93047763     0.05900
H2648       H  0.70145968  0.88890564  0.96521845     0.09100
H2649       H  0.71906312  0.86856526  0.94028878     0.09100
H2650       H  0.77372797  0.99531491  0.91201362     0.09100
H2651       H  0.80027622  0.97098754  0.91890276     0.09100
H2652       H  0.78304847  0.98799571  0.94584003     0.05800
C2653       C  0.75511903  0.04822426  0.96020451    -0.20000
C2654       C  0.73058196  0.05447542  0.94696831    -0.06500
C2655       C  0.71494527  0.07647891  0.95682904     0.14300
C2656       C  0.72472347  0.09217276  0.97881551    -0.20000
C2657       C  0.74979882  0.08643164  0.99125243    -0.06500
C2658       C  0.76479361  0.06370583  0.98219609     0.14300
C2659       C  0.79085808  0.05547245  0.99588852    -0.23400
H2660       H  0.76697010  0.03120473  0.95302994     0.15600
H2661       H  0.71309611  0.10953937  0.98582609     0.15600
C2662       C  0.68779691  0.08307797  0.94454309    -0.23300
H2663       H  0.79988652  0.03705701  0.98639294     0.05900
H2664       H  0.78705317  0.05083072  0.01742163     0.09100
H2665       H  0.80571610  0.07204643  0.99470811     0.09100
H2666       H  0.67452899  0.06507330  0.94578398     0.09100
H2667       H  0.69006824  0.08892690  0.92305873     0.09100
H2668       H  0.67778463  0.10025942  0.95524414     0.05800
C2669       C  0.21915779  0.01878501  0.84704114    -0.20000
C2670       C  0.24310089  0.02182283  0.83257700    -0.06500
C2671       C  0.24163202  0.02783956  0.80465279     0.14300
C2672       C  0.21631546  0.02933395  0.79171587    -0.20000
C2673       C  0.19239545  0.02525876  0.80593305    -0.06500
C2674       C  0.19382790  0.02036094  0.83410052     0.14300
C2675       C  0.16922025  0.01669042  0.85110963    -0.23400
H2676       H  0.22033516  0.01458305  0.86853056     0.15600
H2677       H  0.21515431  0.03334554  0.77019662     0.15600
C2678       C  0.26625345  0.03337305  0.78806044    -0.23300
H2679       H  0.16997489  0.99638493  0.86081181     0.05900
H2680       H  0.15035755  0.01822707  0.83913945     0.09100
H2681       H  0.16868040  0.03256552  0.86714312     0.09100
H2682       H  0.26809578  0.01774385  0.77188536     0.09100
H2683       H  0.28514541  0.03340113  0.80022192     0.09100
H2684       H  0.26419102  0.05370458  0.77855267     0.05800
C2685       C  0.31985164  0.93293734  0.96908074    -0.20000
C2686       C  0.30604009  0.95138619  0.95227809    -0.06500
C2687       C  0.27894996  0.95822010  0.95826385     0.14300
C2688       C  0.26702982  0.94794809  0.98158109    -0.20000
C2689       C  0.28020307  0.92861623  0.99779651    -0.06500
C2690       C  0.30693850  0.92065438  0.99113880     0.14300
C2691       C  0.32201516  0.89857749  0.00608794    -0.23400
H2692       H  0.34071090  0.92792395  0.96478151     0.15600
H2693       H  0.24636564  0.95352360  0.98601762     0.15600
C2694       C  0.26168073  0.97553783  0.93982191    -0.23300
H2695       H  0.32804689  0.88232483  0.99163961     0.05900
H2696       H  0.30978957  0.88904622  0.02198643     0.09100
H2697       H  0.34044259  0.90714941  0.01567944     0.09100
H2698       H  0.27205336  0.98113814  0.92092562     0.09100
H2699       H  0.25548054  0.99431676  0.95066806     0.09100
H2700       H  0.24331833  0.96410634  0.93384093     0.05800
C2701       C  0.28430271  0.04799700  0.93045656    -0.20000
C2702       C  0.31126705  0.05190484  0.92170231    -0.06500
C2703       C  0.32763416  0.06748872  0.94004158     0.14300
C2704       C  0.31612766  0.08074458  0.96324555    -0.20000
C2705       C  0.28888424  0.07757273  0.97072749    -0.06500
C2706       C  0.27326222  0.06016317  0.95408920     0.14300
C2707       C  0.24486187  0.05333984  0.96181023    -0.23400
H2708       H  0.27182872  0.03356985  0.91975735     0.15600
H2709       H  0.32863612  0.09382046  0.97571852     0.15600
C2710       C  0.35759188  0.06958794  0.93622077    -0.23300
H2711       H  0.23484735  0.04015551  0.94650250     0.05900
H2712       H  0.23257797  0.07205591  0.96381750     0.09100
H2713       H  0.24525508  0.04238102  0.98134822     0.09100
H2714       H  0.36191012  0.08159233  0.91798086     0.09100
H2715       H  0.36676204  0.04898552  0.93454536     0.09100
H2716       H  0.36750427  0.08006412  0.95356559     0.05800
C2717       C  0.50377318  0.65969655  0.68739286    -0.20000
C2718       C  0.51022029  0.68407714  0.70097467    -0.06500
C2719       C  0.51974465  0.68184484  0.72825513     0.14300
C2720       C  0.52587094  0.65606305  0.73937498    -0.20000
C2721       C  0.51950447  0.63184951  0.72578363    -0.06500
C2722       C  0.50720019  0.63394611  0.69971250     0.14300
C2723       C  0.49728720  0.60958581  0.68414758    -0.23400
H2724       H  0.49601017  0.66063117  0.66685142     0.15600
H2725       H  0.53382927  0.65478085  0.75983799     0.15600
C2726       C  0.52121258  0.70576962  0.74734048    -0.23300
H2727       H  0.50064076  0.59032472  0.69515699     0.05900
H2728       H  0.50773223  0.60812864  0.66444489     0.09100
H2729       H  0.47530868  0.61188405  0.68010480     0.09100
H2730       H  0.51019505  0.72382671  0.73950224     0.09100
H2731       H  0.54262311  0.71077584  0.75171915     0.09100
H2732       H  0.51129633  0.70064583  0.76667030     0.05800
C2733       C  0.45335895  0.77842441  0.60041945    -0.20000
C2734       C  0.47047213  0.75706106  0.60972549    -0.06500
C2735       C  0.47291396  0.73397351  0.59206536     0.14300
C2736       C  0.45860694  0.73315596  0.56706965    -0.20000
C2737       C  0.44105946  0.75411334  0.55875080    -0.06500
C2738       C  0.43845997  0.77697573  0.57589766     0.14300
C2739       C  0.42035028  0.80041181  0.56793396    -0.23400
H2740       H  0.45233127  0.79728921  0.61158458     0.15600
H2741       H  0.46003021  0.71512170  0.55455058     0.15600
C2742       C  0.49084417  0.70989351  0.59857680    -0.23300
H2743       H  0.42093279  0.81713372  0.58310484     0.05900
H2744       H  0.39923068  0.79350699  0.56612293     0.09100
H2745       H  0.42680136  0.80862942  0.54817643     0.09100
H2746       H  0.48125518  0.69730108  0.61412897     0.09100
H2747       H  0.51119543  0.71621431  0.60538588     0.09100
H2748       H  0.49372542  0.69653664  0.58063166     0.05800
C2749       C  0.56323005  0.73430340  0.55871985    -0.20000
C2750       C  0.57239276  0.75699062  0.57363685    -0.06500
C2751       C  0.59674057  0.76941562  0.56580569     0.14300
C2752       C  0.61120735  0.75861692  0.54374691    -0.20000
C2753       C  0.60174633  0.73612776  0.52892296    -0.06500
C2754       C  0.57734434  0.72400218  0.53642123     0.14300
C2755       C  0.56634027  0.69983451  0.52128522    -0.23400
H2756       H  0.54484174  0.72435818  0.56465863     0.15600
H2757       H  0.63037876  0.76740446  0.53835556     0.15600
C2758       C  0.60741564  0.79421492  0.58012931    -0.23300
H2759       H  0.54753015  0.69219825  0.53046945     0.05900
H2760       H  0.58137659  0.68298471  0.52124892     0.09100
H2761       H  0.56149745  0.70587574  0.50021270     0.09100
H2762       H  0.61406626  0.78896600  0.60092684     0.09100
H2763       H  0.59158000  0.81030568  0.58078861     0.09100
H2764       H  0.62518540  0.80262953  0.56965518     0.05800
C2765       C  0.35980350  0.82306125  0.73246268    -0.20000
C2766       C  0.36464194  0.82753333  0.76033913    -0.06500
C2767       C  0.35952414  0.80543589  0.77796343     0.14300
C2768       C  0.34861975  0.78080772  0.76765787    -0.20000
C2769       C  0.34419532  0.77620501  0.73974256    -0.06500
C2770       C  0.35048245  0.79780068  0.72196886     0.14300
C2771       C  0.34656377  0.79474436  0.69186645    -0.23400
H2772       H  0.36295605  0.83969257  0.71869112     0.15600
H2773       H  0.34427973  0.76459434  0.78168843     0.15600
C2774       C  0.36635266  0.80649057  0.80764569    -0.23300
H2775       H  0.35149416  0.81372771  0.68097551     0.05900
H2776       H  0.32524806  0.78963757  0.68720942     0.09100
H2777       H  0.36001838  0.77838916  0.68409991     0.09100
H2778       H  0.34756211  0.80542672  0.81961721     0.09100
H2779       H  0.37752101  0.82503232  0.81334677     0.09100
H2780       H  0.37954133  0.78891458  0.81299036     0.05800
C2781       C  0.31505014  0.86318057  0.78576718    -0.20000
C2782       C  0.33794362  0.86625724  0.80204523    -0.06500
C2783       C  0.33626566  0.86535449  0.83051944     0.14300
C2784       C  0.31122555  0.86110585  0.84202812    -0.20000
C2785       C  0.28829032  0.85748628  0.82573333    -0.06500
C2786       C  0.29004145  0.85873941  0.79724621     0.14300
C2787       C  0.26607910  0.85434821  0.77874640    -0.23400
H2788       H  0.31683237  0.86426985  0.76394669     0.15600
H2789       H  0.30974210  0.85969490  0.86384136     0.15600
C2790       C  0.36036792  0.86732090  0.84931048    -0.23300
H2791       H  0.27179920  0.85464053  0.75708158     0.05900
H2792       H  0.25103475  0.87086998  0.78186424     0.09100
H2793       H  0.25692549  0.83428452  0.78283983     0.09100
H2794       H  0.35794524  0.88525577  0.86282761     0.09100
H2795       H  0.37973641  0.86905824  0.83853474     0.09100
H2796       H  0.36171373  0.84875123  0.86194997     0.05800
C2797       C  0.41366203  0.85930958  0.71373934    -0.20000
C2798       C  0.41647285  0.85510412  0.74170889    -0.06500
C2799       C  0.43686668  0.83708730  0.75101130     0.14300
C2800       C  0.45374392  0.82365966  0.73228064    -0.20000
C2801       C  0.45054237  0.82728559  0.70419695    -0.06500
C2802       C  0.43023979  0.84560474  0.69491273     0.14300
C2803       C  0.42634939  0.85139897  0.66523889    -0.23400
H2804       H  0.39781234  0.87276822  0.70647751     0.15600
H2805       H  0.46933908  0.80988713  0.73956889     0.15600
C2806       C  0.44075616  0.83195006  0.78078726    -0.23300
H2807       H  0.41108220  0.86771767  0.66176675     0.05900
H2808       H  0.41911849  0.83299273  0.65449574     0.09100
H2809       H  0.44567260  0.85808833  0.65640353     0.09100
H2810       H  0.42216510  0.82310426  0.78922140     0.09100
H2811       H  0.44520290  0.85136751  0.79139506     0.09100
H2812       H  0.45771999  0.81756440  0.78477065     0.05800
C2813       C  0.38221152  0.92907283  0.83197174    -0.20000
C2814       C  0.36803148  0.92144955  0.80820581    -0.06500
C2815       C  0.34529109  0.93789460  0.80138891     0.14300
C2816       C  0.33704841  0.95994172  0.81840688    -0.20000
C2817       C  0.34952524  0.96632806  0.84361570    -0.06500
C2818       C  0.37372646  0.95100824  0.84924782     0.14300
C2819       C  0.39157630  0.95787264  0.87315016    -0.23400
H2820       H  0.39990342  0.91729892  0.83760785     0.15600
H2821       H  0.32158786  0.97308508  0.81052420     0.15600
C2822       C  0.32940487  0.93331896  0.77563337    -0.23300
H2823       H  0.38126622  0.95351384  0.89235538     0.05900
H2824       H  0.39733917  0.97958862  0.87249068     0.09100
H2825       H  0.41052604  0.94564291  0.87316887     0.09100
H2826       H  0.30823789  0.92833545  0.78065153     0.09100
H2827       H  0.33768846  0.91663665  0.76298657     0.09100
H2828       H  0.32949405  0.95211067  0.76329575     0.05800
C2829       C  0.43771929  0.91566611  0.79240172    -0.20000
C2830       C  0.41991770  0.91285091  0.77056426    -0.06500
C2831       C  0.42267034  0.92934811  0.74755759     0.14300
C2832       C  0.44442556  0.94726609  0.74637393    -0.20000
C2833       C  0.46250050  0.95022953  0.76829472    -0.06500
C2834       C  0.45835485  0.93479284  0.79214462     0.14300
C2835       C  0.47512201  0.93803854  0.81761360    -0.23400
H2836       H  0.43523055  0.90287274  0.80996776     0.15600
H2837       H  0.44689672  0.95942305  0.72835419     0.15600
C2838       C  0.40269673  0.92918795  0.72438418    -0.23300
H2839       H  0.46887224  0.92386717  0.83376515     0.05900
H2840       H  0.47264093  0.95898198  0.82573283     0.09100
H2841       H  0.49664889  0.93384059  0.81346392     0.09100
H2842       H  0.38553504  0.91538337  0.72778002     0.09100
H2843       H  0.41303660  0.92287415  0.70552405     0.09100
H2844       H  0.39421631  0.94997145  0.72162290     0.05800
C2845       C  0.64956930  0.77630424  0.75930612    -0.20000
C2846       C  0.64748950  0.79404933  0.73726481    -0.06500
C2847       C  0.65644437  0.78618495  0.71154245     0.14300
C2848       C  0.67001217  0.76157729  0.70918343    -0.20000
C2849       C  0.67449437  0.74504837  0.73184069    -0.06500
C2850       C  0.66281899  0.75143406  0.75685724     0.14300
C2851       C  0.66481069  0.73343487  0.78132975    -0.23400
H2852       H  0.64176989  0.78262909  0.77877776     0.15600
H2853       H  0.67818693  0.75571985  0.68969016     0.15600
C2854       C  0.65296142  0.80343477  0.68663214    -0.23300
H2855       H  0.64426778  0.72971425  0.78916935     0.05900
H2856       H  0.67699579  0.74361893  0.79734574     0.09100
H2857       H  0.67388840  0.71334473  0.77681032     0.09100
H2858       H  0.63983751  0.79268097  0.67179853     0.09100
H2859       H  0.67284056  0.80680695  0.67717955     0.09100
H2860       H  0.64380484  0.82356321  0.69087368     0.05800
C2861       C  0.68894743  0.82116334  0.79030352    -0.20000
C2862       C  0.68279600  0.83229749  0.76499860    -0.06500
C2863       C  0.70302293  0.83520635  0.74533752     0.14300
C2864       C  0.72908861  0.82629806  0.75135790    -0.20000
C2865       C  0.73519328  0.81495332  0.77649141    -0.06500
C2866       C  0.71516604  0.81227495  0.79630258     0.14300
C2867       C  0.72128352  0.79924690  0.82322755    -0.23400
H2868       H  0.67306196  0.81873554  0.80498158     0.15600
H2869       H  0.74485542  0.82855982  0.73649388     0.15600
C2870       C  0.69802631  0.84791482  0.71804658    -0.23300
H2871       H  0.70301122  0.79808235  0.83596759     0.05900
H2872       H  0.73664350  0.81123369  0.83445578     0.09100
H2873       H  0.72906245  0.77825358  0.81996849     0.09100
H2874       H  0.67673792  0.85406090  0.71466857     0.09100
H2875       H  0.70384827  0.83330750  0.70193067     0.09100
H2876       H  0.71063476  0.86633041  0.71615160     0.05800
C2877       C  0.58925617  0.79322822  0.72056895    -0.20000
C2878       C  0.59444888  0.82123151  0.71782085    -0.06500
C2879       C  0.58142639  0.83463091  0.69576585     0.14300
C2880       C  0.56129337  0.82094301  0.68061832    -0.20000
C2881       C  0.55685014  0.79272997  0.68326904    -0.06500
C2882       C  0.57498077  0.77863678  0.70061620     0.14300
C2883       C  0.58607190  0.75080227  0.69401815    -0.23400
H2884       H  0.59897457  0.78169565  0.73646375     0.15600
H2885       H  0.55011221  0.83209674  0.66524501     0.15600
C2886       C  0.58998111  0.86187731  0.68548036    -0.23300
H2887       H  0.58433901  0.73701743  0.71160344     0.05900
H2888       H  0.60791429  0.75253359  0.68959408     0.09100
H2889       H  0.57670625  0.74188997  0.67561116     0.09100
H2890       H  0.60993300  0.86774072  0.69355898     0.09100
H2891       H  0.57451736  0.87754501  0.69040455     0.09100
H2892       H  0.59231375  0.86091138  0.66316697     0.05800
C2893       C  0.67587045  0.89714238  0.77497726    -0.20000
C2894       C  0.65110579  0.88473829  0.78072917    -0.06500
C2895       C  0.63703992  0.89337286  0.80417242     0.14300
C2896       C  0.64753351  0.91457226  0.82038257    -0.20000
C2897       C  0.67213365  0.92696004  0.81440486    -0.06500
C2898       C  0.68657260  0.91788233  0.79159316     0.14300
C2899       C  0.71362864  0.92969917  0.78524475    -0.23400
H2900       H  0.68694244  0.89061212  0.75732481     0.15600
H2901       H  0.63683691  0.92099208  0.83835928     0.15600
C2902       C  0.61175082  0.87979314  0.81367889    -0.23300
H2903       H  0.72278613  0.91982874  0.76724555     0.05900
H2904       H  0.72762027  0.92683817  0.80271825     0.09100
H2905       H  0.71131115  0.95169723  0.78101414     0.09100
H2906       H  0.60604091  0.86195595  0.80123295     0.09100
H2907       H  0.59476780  0.89466794  0.81344125     0.09100
H2908       H  0.61488181  0.87244921  0.83469114     0.05800
C2909       C  0.57372367  0.87966236  0.75626705    -0.20000
C2910       C  0.59912768  0.88209264  0.74468933    -0.06500
C2911       C  0.60884388  0.90746044  0.73604807     0.14300
C2912       C  0.59395837  0.93044665  0.74202151    -0.20000
C2913       C  0.56967024  0.92830194  0.75565224    -0.06500
C2914       C  0.55865648  0.90291485  0.76197661     0.14300
C2915       C  0.53150551  0.90048407  0.77498139    -0.23400
H2916       H  0.56665216  0.85989901  0.76254451     0.15600
H2917       H  0.60126349  0.95021609  0.73591572     0.15600
C2918       C  0.63476034  0.91107326  0.72073737    -0.23300
H2919       H  0.52581818  0.87891692  0.77790225     0.05900
H2920       H  0.51576991  0.91033984  0.76211719     0.09100
H2921       H  0.53221312  0.91050667  0.79508958     0.09100
H2922       H  0.64531557  0.89162186  0.71649475     0.09100
H2923       H  0.64859017  0.92442740  0.73243865     0.09100
H2924       H  0.63021665  0.92084976  0.70099279     0.05800
C2925       C  0.68851871  0.17753219  0.72305745    -0.20000
C2926       C  0.68002477  0.17011023  0.74900132    -0.06500
C2927       C  0.67571533  0.19085671  0.76850563     0.14300
C2928       C  0.68098218  0.21803667  0.76192474    -0.20000
C2929       C  0.69019838  0.22549885  0.73624309    -0.06500
C2930       C  0.69375001  0.20486200  0.71643421     0.14300
C2931       C  0.70216323  0.21153999  0.68807063    -0.23400
H2932       H  0.69141178  0.16170335  0.70802581     0.15600
H2933       H  0.67773493  0.23365877  0.77713622     0.15600
C2934       C  0.66468504  0.18539515  0.79619161    -0.23300
H2935       H  0.70263947  0.19317168  0.67491593     0.05900
H2936       H  0.72269228  0.22030418  0.68834463     0.09100
H2937       H  0.68767791  0.22633317  0.67899228     0.09100
H2938       H  0.65986746  0.16377582  0.79943432     0.09100
H2939       H  0.64576420  0.19728690  0.79900989     0.09100
H2940       H  0.67958400  0.19179556  0.81184445     0.05800
C2941       C  0.71217524  0.14190731  0.81637008    -0.20000
C2942       C  0.71369476  0.13685168  0.78853278    -0.06500
C2943       C  0.73740687  0.14322945  0.77441286     0.14300
C2944       C  0.75916407  0.15424010  0.78866280    -0.20000
C2945       C  0.75815449  0.15785121  0.81672111    -0.06500
C2946       C  0.73426708  0.15216645  0.83080142     0.14300
C2947       C  0.73180523  0.15741518  0.86077787    -0.23400
H2948       H  0.69358095  0.13825344  0.82679990     0.15600
H2949       H  0.77772397  0.15828840  0.77802118     0.15600
C2950       C  0.74103613  0.13758648  0.74464638    -0.23300
H2951       H  0.71109508  0.15333667  0.86801578     0.05900
H2952       H  0.73648140  0.17901094  0.86529132     0.09100
H2953       H  0.74585757  0.14403897  0.87229935     0.09100
H2954       H  0.72354747  0.12730602  0.73511313     0.09100
H2955       H  0.75888934  0.12411646  0.74179408     0.09100
H2956       H  0.74446910  0.15699510  0.73389693     0.05800
C2957       C  0.64128881  0.12602041  0.69595553    -0.20000
C2958       C  0.63747238  0.13348056  0.72315979    -0.06500
C2959       C  0.61502512  0.14993468  0.72999101     0.14300
C2960       C  0.59725654  0.15876435  0.70956026    -0.20000
C2961       C  0.60098663  0.15147925  0.68235803    -0.06500
C2962       C  0.62329713  0.13489130  0.67543103     0.14300
C2963       C  0.62766940  0.12601646  0.64663553    -0.23400
H2964       H  0.65852727  0.11339624  0.69076114     0.15600
H2965       H  0.58006855  0.17139935  0.71491447     0.15600
C2966       C  0.60878062  0.15817701  0.75862815    -0.23300
H2967       H  0.64542749  0.11220643  0.64487307     0.05900
H2968       H  0.63125627  0.14397421  0.63373748     0.09100
H2969       H  0.60962423  0.11506181  0.63898976     0.09100
H2970       H  0.60942082  0.18066170  0.76050616     0.09100
H2971       H  0.62303165  0.14931069  0.77355934     0.09100
H2972       H  0.58826644  0.15115304  0.76386674     0.05800
C2973       C  0.70350152  0.05649574  0.78619650    -0.20000
C2974       C  0.68768691  0.07832613  0.79552904    -0.06500
C2975       C  0.67899921  0.07754115  0.82270366     0.14300
C2976       C  0.68848956  0.05678091  0.84018892    -0.20000
C2977       C  0.70598907  0.03557548  0.83160711    -0.06500
C2978       C  0.71167894  0.03473732  0.80322300     0.14300
C2979       C  0.72498955  0.01096685  0.78916900    -0.23400
H2980       H  0.70888355  0.05594916  0.76499131     0.15600
H2981       H  0.68080813  0.05672928  0.86055706     0.15600
C2982       C  0.65855077  0.09742337  0.83375021    -0.23300
H2983       H  0.74421434  0.01749943  0.78001602     0.05900
H2984       H  0.71147160  0.00355621  0.77271005     0.09100
H2985       H  0.72907777  0.99347079  0.80247113     0.09100
H2986       H  0.64027054  0.08625530  0.83992742     0.09100
H2987       H  0.65220199  0.11299661  0.81881249     0.09100
H2988       H  0.66707060  0.10790212  0.85181657     0.05800
C2989       C  0.61512531  0.03903762  0.73781181    -0.20000
C2990       C  0.59347402  0.04368490  0.75539290    -0.06500
C2991       C  0.59347443  0.06701676  0.77227619     0.14300
C2992       C  0.61559498  0.08428463  0.77216015    -0.20000
C2993       C  0.63744633  0.07936505  0.75521829    -0.06500
C2994       C  0.63723903  0.05676250  0.73749774     0.14300
C2995       C  0.65987821  0.05088938  0.71820289    -0.23400
H2996       H  0.61496130  0.02138121  0.72459827     0.15600
H2997       H  0.61573413  0.10201788  0.78524293     0.15600
C2998       C  0.56969002  0.07467557  0.78957863    -0.23300
H2999       H  0.65187920  0.05087583  0.69713523     0.05900
H3000       H  0.66879127  0.03060099  0.72270116     0.09100
H3001       H  0.67620986  0.06610571  0.71956359     0.09100
H3002       H  0.56682701  0.05936772  0.80565013     0.09100
H3003       H  0.55127872  0.07618096  0.77667039     0.09100
H3004       H  0.57248607  0.09465422  0.79975634     0.05800
C3005       C  0.35679538  0.15382699  0.77035100    -0.20000
C3006       C  0.37912445  0.16906416  0.77852638    -0.06500
C3007       C  0.37568634  0.19296184  0.79406487     0.14300
C3008       C  0.34953551  0.20227018  0.79923880    -0.20000
C3009       C  0.32728139  0.18750943  0.79001862    -0.06500
C3010       C  0.33077023  0.16267800  0.77612467     0.14300
C3011       C  0.30706906  0.14580198  0.76694235    -0.23400
H3012       H  0.35971293  0.13548261  0.75849497     0.15600
H3013       H  0.34648715  0.22067214  0.81103306     0.15600
C3014       C  0.39900228  0.20842694  0.80614455    -0.23300
H3015       H  0.31362278  0.12732704  0.75568824     0.05900
H3016       H  0.29373306  0.15801111  0.75340768     0.09100
H3017       H  0.29541545  0.13909333  0.78471887     0.09100
H3018       H  0.41883026  0.19908814  0.80131328     0.09100
H3019       H  0.39713723  0.20887220  0.82850679     0.09100
H3020       H  0.39863032  0.22964614  0.79862369     0.05800
C3021       C  0.41694227  0.22347220  0.74409641    -0.20000
C3022       C  0.40749035  0.19813536  0.73552897    -0.06500
C3023       C  0.38426119  0.19621743  0.71908760     0.14300
C3024       C  0.36960171  0.21962226  0.71348857    -0.20000
C3025       C  0.37744166  0.24487122  0.72411075    -0.06500
C3026       C  0.40201196  0.24715483  0.73866005     0.14300
C3027       C  0.41179490  0.27390555  0.74966958    -0.23400
H3028       H  0.43496163  0.22435015  0.75666382     0.15600
H3029       H  0.35144780  0.21795391  0.70114971     0.15600
C3030       C  0.37410560  0.16962951  0.70777849    -0.23300
H3031       H  0.41637088  0.28769919  0.73267272     0.05900
H3032       H  0.43055167  0.27143641  0.76194351     0.09100
H3033       H  0.39612974  0.28320012  0.76278345     0.09100
H3034       H  0.35333590  0.16592974  0.71498381     0.09100
H3035       H  0.38705622  0.15206604  0.71357838     0.09100
H3036       H  0.37354816  0.17064888  0.68534742     0.05800
C3037       C  0.44671206  0.17480426  0.69148081    -0.20000
C3038       C  0.45786872  0.16658659  0.71648714    -0.06500
C3039       C  0.48621371  0.16794416  0.71923048     0.14300
C3040       C  0.50208125  0.17462303  0.69663719    -0.20000
C3041       C  0.49126216  0.17986598  0.67038636    -0.06500
C3042       C  0.46270200  0.18426957  0.66997659     0.14300
C3043       C  0.44836457  0.20332591  0.65076752    -0.23400
H3044       H  0.42510393  0.17588574  0.68912009     0.15600
H3045       H  0.52307764  0.17847861  0.70076543     0.15600
C3046       C  0.50053869  0.16455041  0.74606905    -0.23300
H3047       H  0.43788548  0.21942443  0.66263675     0.05900
H3048       H  0.43277397  0.19225477  0.63891684     0.09100
H3049       H  0.46216183  0.21427321  0.63735262     0.09100
H3050       H  0.51404659  0.14643754  0.74523778     0.09100
H3051       H  0.48656624  0.16231647  0.76320519     0.09100
H3052       H  0.51290111  0.18280822  0.75040655     0.05800
C3053       C  0.40874678  0.11769598  0.81894439    -0.20000
C3054       C  0.40681174  0.11400868  0.79080231    -0.06500
C3055       C  0.39333753  0.09055284  0.78096811     0.14300
C3056       C  0.38179988  0.07205379  0.79933211    -0.20000
C3057       C  0.38307681  0.07604929  0.82760610    -0.06500
C3058       C  0.39756038  0.09903297  0.83735903     0.14300
C3059       C  0.40249882  0.10358859  0.86714835    -0.23400
H3060       H  0.41916126  0.13546438  0.82661272     0.15600
H3061       H  0.37114194  0.05458656  0.79136013     0.15600
C3062       C  0.38992315  0.08475332  0.75118794    -0.23300
H3063       H  0.41708315  0.12024066  0.87085697     0.05900
H3064       H  0.41100745  0.08484301  0.87645467     0.09100
H3065       H  0.38354244  0.10956018  0.87730453     0.09100
H3066       H  0.39838827  0.10080337  0.73827652     0.09100
H3067       H  0.36811269  0.08315435  0.74612753     0.09100
H3068       H  0.40009970  0.06521097  0.74611723     0.05800
C3069       C  0.47044180  0.10705295  0.77955176    -0.20000
C3070       C  0.45839341  0.11350948  0.75467253    -0.06500
C3071       C  0.46190948  0.09689197  0.73187617     0.14300
C3072       C  0.47759683  0.07371260  0.73473961    -0.20000
C3073       C  0.48819218  0.06586569  0.76014239    -0.06500
C3074       C  0.48466388  0.08288988  0.78297561     0.14300
C3075       C  0.49458402  0.07579662  0.81106602    -0.23400
H3076       H  0.46726026  0.12037293  0.79681485     0.15600
H3077       H  0.48015995  0.06095974  0.71698737     0.15600
C3078       C  0.44813071  0.10158375  0.70488720    -0.23300
H3079       H  0.48960763  0.09196044  0.82602695     0.05900
H3080       H  0.51679408  0.07319736  0.81131024     0.09100
H3081       H  0.48482368  0.05686723  0.81795135     0.09100
H3082       H  0.43343502  0.11860050  0.70502891     0.09100
H3083       H  0.43669635  0.08314640  0.69894329     0.09100
H3084       H  0.46354110  0.10559566  0.68929740     0.05800
C3085       C  0.71595488  0.50176480  0.27804215    -0.20000
C3086       C  0.68947859  0.49538265  0.28535782    -0.06500
C3087       C  0.68439664  0.48710910  0.31205538     0.14300
C3088       C  0.70606565  0.48488367  0.33065390    -0.20000
C3089       C  0.73274428  0.48986798  0.32272161    -0.06500
C3090       C  0.73762361  0.49844081  0.29606186     0.14300
C3091       C  0.76558581  0.50307997  0.28558173    -0.23400
H3092       H  0.71991313  0.50765699  0.25736002     0.15600
H3093       H  0.70223176  0.47919112  0.35134811     0.15600
C3094       C  0.65635873  0.47970872  0.32043527    -0.23300
H3095       H  0.76941062  0.48912651  0.26828429     0.05900
H3096       H  0.78155331  0.49932130  0.30099482     0.09100
H3097       H  0.76718432  0.52434051  0.27842582     0.09100
H3098       H  0.64887185  0.46267349  0.30767626     0.09100
H3099       H  0.64268699  0.49753850  0.31791590     0.09100
H3100       H  0.65582771  0.47327746  0.34192916     0.05800
C3101       C  0.58563770  0.52630183  0.24212883    -0.20000
C3102       C  0.59718899  0.53178736  0.21678739    -0.06500
C3103       C  0.58117701  0.54685905  0.19769945     0.14300
C3104       C  0.55658944  0.55855194  0.20584055    -0.20000
C3105       C  0.54626319  0.55403115  0.23158326    -0.06500
C3106       C  0.56038637  0.53675123  0.24946019     0.14300
C3107       C  0.54865370  0.52900747  0.27630660    -0.23400
H3108       H  0.59544653  0.51240358  0.25596878     0.15600
H3109       H  0.54568578  0.57201468  0.19217120     0.15600
C3110       C  0.58819618  0.55061584  0.16830753    -0.23300
H3111       H  0.56250952  0.51557741  0.28806988     0.05900
H3112       H  0.52960351  0.51784408  0.27291218     0.09100
H3113       H  0.54452912  0.54731777  0.28869450     0.09100
H3114       H  0.60504520  0.53778519  0.16122254     0.09100
H3115       H  0.59298039  0.57228162  0.16462027     0.09100
H3116       H  0.57058991  0.54499223  0.15543296     0.05800
C3117       C  0.56879687  0.43992484  0.23394174    -0.20000
C3118       C  0.58123231  0.43087230  0.20993709    -0.06500
C3119       C  0.57864690  0.40338976  0.20208211     0.14300
C3120       C  0.56404053  0.38581454  0.21855208    -0.20000
C3121       C  0.55036742  0.39541718  0.24143271    -0.06500
C3122       C  0.55280138  0.42276151  0.24927937     0.14300
C3123       C  0.53846901  0.43392885  0.27370791    -0.23400
H3124       H  0.57152060  0.46064628  0.24083375     0.15600
H3125       H  0.56348703  0.36438252  0.21362587     0.15600
C3126       C  0.59028262  0.39266008  0.17606172    -0.23300
H3127       H  0.54198596  0.45604876  0.27645140     0.05900
H3128       H  0.54587319  0.42347570  0.29214970     0.09100
H3129       H  0.51640468  0.43077125  0.27141490     0.09100
H3130       H  0.61260351  0.39253324  0.17703340     0.09100
H3131       H  0.58321244  0.40540905  0.15887954     0.09100
H3132       H  0.58388053  0.37143792  0.17197382     0.05800
C3133       C  0.84909184  0.81512477  0.98375509    -0.20000
C3134       C  0.83997116  0.79235568  0.99785274    -0.06500
C3135       C  0.81472111  0.79391091  0.01075471     0.14300
C3136       C  0.79882194  0.81762436  0.00864514    -0.20000
C3137       C  0.80736760  0.83997000  0.99364678    -0.06500
C3138       C  0.83331777  0.83909069  0.98193570     0.14300
C3139       C  0.84530513  0.86336780  0.96840326    -0.23400
H3140       H  0.86868306  0.81420045  0.97425249     0.15600
H3141       H  0.77927649  0.81862786  0.01823535     0.15600
C3142       C  0.80455076  0.77044591  0.02669141    -0.23300
H3143       H  0.86497546  0.86819768  0.97816053     0.05900
H3144       H  0.83234108  0.88172698  0.97021169     0.09100
H3145       H  0.84861720  0.85879007  0.94666753     0.09100
H3146       H  0.81927255  0.76560022  0.04309008     0.09100
H3147       H  0.80198953  0.75276374  0.01294748     0.09100
H3148       H  0.78474167  0.77499680  0.03606325     0.05800
C3149       C  0.98660835  0.72984210  0.93410558    -0.20000
C3150       C  0.97051923  0.70672313  0.93258154    -0.06500
C3151       C  0.97402493  0.68793941  0.91120380     0.14300
C3152       C  0.99060337  0.69488473  0.88973261    -0.20000
C3153       C  0.00523584  0.71902139  0.89043918    -0.06500
C3154       C  0.00420910  0.73616014  0.91350856     0.14300
C3155       C  0.01998523  0.76195101  0.91692778    -0.23400
H3156       H  0.98421599  0.74406926  0.95073970     0.15600
H3157       H  0.99207348  0.68146255  0.87232927     0.15600
C3158       C  0.96125204  0.66034639  0.91088755    -0.23300
H3159       H  0.03373226  0.76006917  0.93471842     0.05900
H3160       H  0.00602571  0.77938022  0.92037858     0.09100
H3161       H  0.03213699  0.76662167  0.89921706     0.09100
H3162       H  0.94636087  0.65903936  0.89400918     0.09100
H3163       H  0.95130172  0.65569539  0.93025568     0.09100
H3164       H  0.97710565  0.64454201  0.90790980     0.05800
C3165       C  0.94570298  0.71504738  0.05725759    -0.20000
C3166       C  0.93567462  0.73078054  0.03531922    -0.06500
C3167       C  0.95003789  0.75557287  0.03043772     0.14300
C3168       C  0.97188079  0.76385265  0.04762827    -0.20000
C3169       C  0.98138630  0.74811276  0.06949263    -0.06500
C3170       C  0.96779658  0.72329362  0.07406065     0.14300
C3171       C  0.97683284  0.70507548  0.09682972    -0.23400
H3172       H  0.93682191  0.69552135  0.06112964     0.15600
H3173       H  0.98157650  0.78311613  0.04389147     0.15600
C3174       C  0.94388539  0.77400226  0.00683614    -0.23300
H3175       H  0.96493092  0.68608105  0.09750062     0.05900
H3176       H  0.97431315  0.71574742  0.11639766     0.09100
H3177       H  0.99840691  0.69946282  0.09427247     0.09100
H3178       H  0.93716570  0.79420096  0.01445668     0.09100
H3179       H  0.92831265  0.76623603  0.99281086     0.09100
H3180       H  0.96245209  0.77666381  0.99478263     0.05800
C3181       C  0.82889382  0.16713609  0.02225238    -0.20000
C3182       C  0.80063235  0.16901915  0.02167698    -0.06500
C3183       C  0.78863748  0.19436182  0.01491025     0.14300
C3184       C  0.80497450  0.21696524  0.00900679    -0.20000
C3185       C  0.83332264  0.21503557  0.00920074    -0.06500
C3186       C  0.84527824  0.18933063  0.01526205     0.14300
C3187       C  0.87512439  0.18395200  0.01291330    -0.23400
H3188       H  0.83826503  0.14772684  0.02690750     0.15600
H3189       H  0.79554784  0.23643882  0.00468272     0.15600
C3190       C  0.75847271  0.19764648  0.01415231    -0.23300
H3191       H  0.87850275  0.16609947  0.99947235     0.05900
H3192       H  0.88383580  0.17945717  0.03320405     0.09100
H3193       H  0.88610601  0.20109350  0.00385567     0.09100
H3194       H  0.75030591  0.19383475  0.03452417     0.09100
H3195       H  0.74951520  0.18310184  0.99954494     0.09100
H3196       H  0.75224581  0.21848539  0.00801027     0.05800
C3197       C  0.96022232  0.29968656  0.92822075    -0.20000
C3198       C  0.96302989  0.30723193  0.95546748    -0.06500
C3199       C  0.98937414  0.30534176  0.96728884     0.14300
C3200       C  0.00943214  0.28953216  0.95455587    -0.20000
C3201       C  0.00531678  0.27904461  0.92847247    -0.06500
C3202       C  0.98175619  0.28775538  0.91409814     0.14300
C3203       C  0.97923695  0.28689597  0.88373814    -0.23400
H3204       H  0.94126330  0.30305418  0.91766989     0.15600
H3205       H  0.02832340  0.28563875  0.96508959     0.15600
C3206       C  0.99746366  0.32075462  0.99245279    -0.23300
H3207       H  0.97503290  0.30773605  0.87616129     0.05900
H3208       H  0.96209968  0.27380150  0.87759693     0.09100
H3209       H  0.99807163  0.27999044  0.87388560     0.09100
H3210       H  0.00254438  0.30633725  0.00899742     0.09100
H3211       H  0.98151851  0.33517006  0.99914870     0.09100
H3212       H  0.01555328  0.33311289  0.98816655     0.05800
C3213       C  0.94108706  0.27373428  0.09581857    -0.20000
C3214       C  0.96296348  0.25851948  0.08517369    -0.06500
C3215       C  0.96068085  0.25157511  0.05731164     0.14300
C3216       C  0.93855575  0.26149761  0.04123259    -0.20000
C3217       C  0.91790494  0.27901637  0.05132562    -0.06500
C3218       C  0.91776614  0.28099310  0.08015415     0.14300
C3219       C  0.89196608  0.28295204  0.09573998    -0.23400
H3220       H  0.94063600  0.27732998  0.11744168     0.15600
H3221       H  0.93751923  0.25551025  0.02013921     0.15600
C3222       C  0.98093653  0.23269927  0.04447099    -0.23300
H3223       H  0.88987138  0.26443970  0.10824633     0.05900
H3224       H  0.87392336  0.28336518  0.08234121     0.09100
H3225       H  0.89248186  0.30053869  0.10987356     0.09100
H3226       H  0.98177825  0.21317748  0.05564338     0.09100
H3227       H  0.00112410  0.24217395  0.04477585     0.09100
H3228       H  0.97564189  0.22815921  0.02304041     0.05800
C3229       C  0.69910779  0.48872468  0.67400827    -0.20000
C3230       C  0.71376574  0.48776920  0.69882183    -0.06500
C3231       C  0.74260759  0.48761610  0.69616472     0.14300
C3232       C  0.75515382  0.48577806  0.67014611    -0.20000
C3233       C  0.74047212  0.48611221  0.64547544    -0.06500
C3234       C  0.71183467  0.48831644  0.64795386     0.14300
C3235       C  0.69390455  0.49018606  0.62332775    -0.23400
H3236       H  0.67728315  0.48941882  0.67482615     0.15600
H3237       H  0.77696211  0.48490567  0.66914227     0.15600
C3238       C  0.76121652  0.49133422  0.72015238    -0.23300
H3239       H  0.67932816  0.47318218  0.62328471     0.05900
H3240       H  0.70543081  0.48920980  0.60424700     0.09100
H3241       H  0.68253287  0.50973043  0.62375053     0.09100
H3242       H  0.77252801  0.47215715  0.72411217     0.09100
H3243       H  0.75052050  0.49791470  0.73862723     0.09100
H3244       H  0.77586911  0.50764649  0.71577191     0.05800
C3245       C  0.58904521  0.40349810  0.80245300    -0.20000
C3246       C  0.60832634  0.41708582  0.78724426    -0.06500
C3247       C  0.60691106  0.41652857  0.75878422     0.14300
C3248       C  0.58439799  0.40533385  0.74624531    -0.20000
C3249       C  0.56418267  0.39296622  0.76130426    -0.06500
C3250       C  0.56735810  0.39040428  0.78963550     0.14300
C3251       C  0.54884005  0.37375369  0.80669265    -0.23400
H3252       H  0.59055535  0.40382658  0.82433897     0.15600
H3253       H  0.58209791  0.40725754  0.72454422     0.15600
C3254       C  0.62838064  0.42929828  0.74169560    -0.23300
H3255       H  0.53792166  0.38719763  0.82107349     0.05900
H3256       H  0.56092052  0.35862370  0.81834561     0.09100
H3257       H  0.53406069  0.36220467  0.79438391     0.09100
H3258       H  0.64838343  0.42029184  0.74687378     0.09100
H3259       H  0.62893324  0.45156888  0.74505588     0.09100
H3260       H  0.62461237  0.42580971  0.71976559     0.05800
C3261       C  0.60853225  0.52199197  0.75239429    -0.20000
C3262       C  0.62165298  0.52185626  0.77819378    -0.06500
C3263       C  0.60476811  0.53390942  0.79905756     0.14300
C3264       C  0.57901132  0.54725604  0.79322058    -0.20000
C3265       C  0.56619438  0.54754195  0.76739502    -0.06500
C3266       C  0.58190359  0.53364675  0.74707767     0.14300
C3267       C  0.57054185  0.52942837  0.71913256    -0.23400
H3268       H  0.61860531  0.51160011  0.73596036     0.15600
H3269       H  0.56859680  0.55751731  0.80956942     0.15600
C3270       C  0.61227558  0.53264506  0.82862569    -0.23300
H3271       H  0.58398378  0.53891917  0.70417655     0.05900
H3272       H  0.54983953  0.53784324  0.71685730     0.09100
H3273       H  0.56953953  0.50730291  0.71472863     0.09100
H3274       H  0.62987028  0.51954888  0.83310580     0.09100
H3275       H  0.59523259  0.52399904  0.84006574     0.09100
H3276       H  0.61627304  0.55346258  0.83636645     0.05800
C3277       C  0.73582495  0.34946926  0.83456281    -0.20000
C3278       C  0.76358596  0.35321720  0.83153120    -0.06500
C3279       C  0.77694876  0.34268733  0.80886107     0.14300
C3280       C  0.76208398  0.32876166  0.78947637    -0.20000
C3281       C  0.73392129  0.32579132  0.79161796    -0.06500
C3282       C  0.72058929  0.33609390  0.81474317     0.14300
C3283       C  0.69069582  0.33307506  0.81904224    -0.23400
H3284       H  0.72616083  0.35720289  0.85263797     0.15600
H3285       H  0.77274653  0.32133233  0.77184479     0.15600
C3286       C  0.80658109  0.34657190  0.80393299    -0.23300
H3287       H  0.68455303  0.34062145  0.83930269     0.05900
H3288       H  0.68511625  0.31130724  0.81756248     0.09100
H3289       H  0.67919262  0.34512793  0.80383575     0.09100
H3290       H  0.81698377  0.32649089  0.80343140     0.09100
H3291       H  0.81626384  0.35940441  0.81957142     0.09100
H3292       H  0.80938187  0.35672807  0.78416583     0.05800
C3293       C  0.78696842  0.30223885  0.86765266    -0.20000
C3294       C  0.80442632  0.32444793  0.86667760    -0.06500
C3295       C  0.83204267  0.32024212  0.86143178     0.14300
C3296       C  0.84155489  0.29390350  0.85737259    -0.20000
C3297       C  0.82443806  0.27134377  0.85860419    -0.06500
C3298       C  0.79659476  0.27557332  0.86365289     0.14300
C3299       C  0.77706058  0.25238395  0.86556938    -0.23400
H3300       H  0.76579321  0.30582700  0.87179087     0.15600
H3301       H  0.86279707  0.29112260  0.85297024     0.15600
C3302       C  0.85215150  0.34293548  0.85921634    -0.23300
H3303       H  0.75647367  0.25959977  0.87087794     0.05900
H3304       H  0.78392736  0.23796579  0.88147820     0.09100
H3305       H  0.77552788  0.24167436  0.84580657     0.09100
H3306       H  0.86172791  0.34210127  0.83901677     0.09100
H3307       H  0.84300437  0.36339793  0.86151399     0.09100
H3308       H  0.86810606  0.34033172  0.87493855     0.05800
C3309       C  0.73124348  0.42515789  0.85987757    -0.20000
C3310       C  0.75370798  0.41276416  0.84731388    -0.06500
C3311       C  0.75676695  0.42012986  0.81944053     0.14300
C3312       C  0.73712890  0.43665306  0.80507995    -0.20000
C3313       C  0.71405103  0.44862704  0.81724681    -0.06500
C3314       C  0.71216895  0.44277130  0.84595744     0.14300
C3315       C  0.68979666  0.45467699  0.86296854    -0.23400
H3316       H  0.72816316  0.42060291  0.88102467     0.15600
H3317       H  0.74090460  0.44090035  0.78417118     0.15600
C3318       C  0.78181926  0.41245773  0.80426121    -0.23300
H3319       H  0.69231140  0.44938046  0.88466821     0.05900
H3320       H  0.66999199  0.44661292  0.85648329     0.09100
H3321       H  0.68956325  0.47712141  0.86190881     0.09100
H3322       H  0.77654926  0.39871731  0.78717193     0.09100
H3323       H  0.79719470  0.40263321  0.81739838     0.09100
H3324       H  0.79115955  0.43107689  0.79606323     0.05800
C3325       C  0.80313153  0.33577644  0.93665715    -0.20000
C3326       C  0.81444742  0.35612056  0.92015157    -0.06500
C3327       C  0.84112877  0.36388940  0.92772289     0.14300
C3328       C  0.85597418  0.34979536  0.94864371    -0.20000
C3329       C  0.84542826  0.32804782  0.96425186    -0.06500
C3330       C  0.81714358  0.32356628  0.95931609     0.14300
C3331       C  0.79993295  0.30801484  0.97862167    -0.23400
H3332       H  0.78237804  0.33014495  0.93264016     0.15600
H3333       H  0.87601448  0.35698314  0.95337836     0.15600
C3334       C  0.85472507  0.38743951  0.91435959    -0.23300
H3335       H  0.78285943  0.32117233  0.98517276     0.05900
H3336       H  0.81085756  0.30204243  0.99728507     0.09100
H3337       H  0.79150557  0.28979339  0.96838807     0.09100
H3338       H  0.84192221  0.39718585  0.89860914     0.09100
H3339       H  0.87376965  0.38043043  0.90487791     0.09100
H3340       H  0.85958410  0.40312314  0.92984398     0.05800
C3341       C  0.76652711  0.40428679  0.93127058    -0.20000
C3342       C  0.78080175  0.41228446  0.90849096    -0.06500
C3343       C  0.79135269  0.43858504  0.90613257     0.14300
C3344       C  0.78762779  0.45654965  0.92751505    -0.20000
C3345       C  0.77360512  0.44834853  0.95039678    -0.06500
C3346       C  0.76273829  0.42221024  0.95252272     0.14300
C3347       C  0.74799073  0.41299987  0.97737076    -0.23400
H3348       H  0.75858835  0.38384846  0.93246082     0.15600
H3349       H  0.79560639  0.47697803  0.92638023     0.15600
C3350       C  0.80700781  0.44802150  0.88198503    -0.23300
H3351       H  0.74192058  0.39136721  0.97576201     0.05900
H3352       H  0.72940570  0.42539985  0.98015791     0.09100
H3353       H  0.76124975  0.41517807  0.99549055     0.09100
H3354       H  0.80966903  0.43201942  0.86637286     0.09100
H3355       H  0.82740250  0.45458179  0.88866704     0.09100
H3356       H  0.79631597  0.46552380  0.87248063     0.05800
C3357       C  0.75948588  0.67372941  0.82203791    -0.20000
C3358       C  0.77073526  0.64806193  0.82755117    -0.06500
C3359       C  0.77088861  0.62847817  0.80622991     0.14300
C3360       C  0.75869276  0.63470353  0.78086981    -0.20000
C3361       C  0.74794608  0.66068361  0.77542585    -0.06500
C3362       C  0.74927183  0.68062658  0.79630324     0.14300
C3363       C  0.73962178  0.70943477  0.79183997    -0.23400
H3364       H  0.75818963  0.68853893  0.83818392     0.15600
H3365       H  0.75876166  0.61956162  0.76486631     0.15600
C3366       C  0.78462166  0.60120377  0.80911173    -0.23300
H3367       H  0.74029695  0.72173379  0.81074550     0.05900
H3368       H  0.71858157  0.70933179  0.78429263     0.09100
H3369       H  0.75261448  0.71966187  0.77693896     0.09100
H3370       H  0.76947742  0.58481788  0.80698886     0.09100
H3371       H  0.79533256  0.59883655  0.82875287     0.09100
H3372       H  0.79989322  0.59872166  0.79299217     0.05800
C3373       C  0.79586160  0.70564405  0.87337600    -0.20000
C3374       C  0.80832169  0.68258950  0.86241724    -0.06500
C3375       C  0.82353018  0.68444225  0.83883891     0.14300
C3376       C  0.82239115  0.70845357  0.82422454    -0.20000
C3377       C  0.80629329  0.73053256  0.83289271    -0.06500
C3378       C  0.79440841  0.72980796  0.85884257     0.14300
C3379       C  0.77886364  0.75333762  0.87089515    -0.23400
H3380       H  0.78427487  0.70365178  0.89163858     0.15600
H3381       H  0.83321778  0.70930904  0.80531356     0.15600
C3382       C  0.83927724  0.66060754  0.82785290    -0.23300
H3383       H  0.77075095  0.74841220  0.89113554     0.05900
H3384       H  0.76145919  0.75879593  0.85762920     0.09100
H3385       H  0.79241819  0.77098195  0.87358172     0.09100
H3386       H  0.83858209  0.64274183  0.84144793     0.09100
H3387       H  0.86074050  0.66636433  0.82560315     0.09100
H3388       H  0.83096259  0.65464312  0.80775904     0.05800
C3389       C  0.70979221  0.58640850  0.84016044    -0.20000
C3390       C  0.71628108  0.55885934  0.84460837    -0.06500
C3391       C  0.73806744  0.55293775  0.86278848     0.14300
C3392       C  0.75591026  0.57362072  0.87024865    -0.20000
C3393       C  0.74999120  0.60095667  0.86492644    -0.06500
C3394       C  0.72519818  0.60737118  0.85177118     0.14300
C3395       C  0.71359798  0.63574261  0.85068625    -0.23400
H3396       H  0.69235477  0.59193286  0.82801063     0.15600
H3397       H  0.77419294  0.56821973  0.88116949     0.15600
C3398       C  0.74196191  0.52612310  0.87705063    -0.23300
H3399       H  0.71162748  0.64240107  0.82932849     0.05900
H3400       H  0.72585017  0.65056895  0.86230745     0.09100
H3401       H  0.69321534  0.63585769  0.85979574     0.09100
H3402       H  0.75967764  0.51506398  0.86871446     0.09100
H3403       H  0.72368106  0.51336798  0.87610432     0.09100
H3404       H  0.74575211  0.52982302  0.89896190     0.05800
C3405       C  0.84776782  0.65170056  0.91705380    -0.20000
C3406       C  0.82012754  0.65819906  0.91760362    -0.06500
C3407       C  0.81138951  0.67590164  0.93852288     0.14300
C3408       C  0.83055051  0.68857252  0.95596773    -0.20000
C3409       C  0.85870418  0.68327137  0.95467625    -0.06500
C3410       C  0.86618899  0.66140214  0.93695133     0.14300
C3411       C  0.89193205  0.64515967  0.93993126    -0.23400
H3412       H  0.85492576  0.63739392  0.90198867     0.15600
H3413       H  0.82291950  0.70161157  0.97178217     0.15600
C3414       C  0.78193928  0.68163735  0.94340085    -0.23300
H3415       H  0.88690319  0.62336949  0.94246197     0.05900
H3416       H  0.90404349  0.65073508  0.95796157     0.09100
H3417       H  0.90408198  0.64704912  0.92135392     0.09100
H3418       H  0.77669421  0.67494928  0.96409893     0.09100
H3419       H  0.76849528  0.67093385  0.92888929     0.09100
H3420       H  0.77791254  0.70380623  0.94174446     0.05800
C3421       C  0.75597757  0.60300170  0.93179800    -0.20000
C3422       C  0.78147254  0.60544757  0.92009060    -0.06500
C3423       C  0.80205573  0.58652619  0.92651793     0.14300
C3424       C  0.79688553  0.56622077  0.94525553    -0.20000
C3425       C  0.77112559  0.56291582  0.95632237    -0.06500
C3426       C  0.75029229  0.58163514  0.94946958     0.14300
C3427       C  0.72212227  0.57936034  0.96034800    -0.23400
H3428       H  0.74008205  0.61716784  0.92597608     0.15600
H3429       H  0.81289513  0.55177920  0.94997592     0.15600
C3430       C  0.82877598  0.58530992  0.91225486    -0.23300
H3431       H  0.70893083  0.59639589  0.95345472     0.05900
H3432       H  0.72266433  0.57976608  0.98277246     0.09100
H3433       H  0.71281208  0.56019720  0.95308884     0.09100
H3434       H  0.82977531  0.59924327  0.89484084     0.09100
H3435       H  0.83212534  0.56451444  0.90402758     0.09100
H3436       H  0.84528907  0.59007101  0.92682032     0.05800
C3437       C  0.69724280  0.68418995  0.18628929    -0.20000
C3438       C  0.71775214  0.68672838  0.20583777    -0.06500
C3439       C  0.74453500  0.69182047  0.19817667     0.14300
C3440       C  0.75085258  0.68924874  0.17110941    -0.20000
C3441       C  0.73114503  0.68180834  0.15207585    -0.06500
C3442       C  0.70371681  0.68217170  0.15905675     0.14300
C3443       C  0.68135331  0.67858653  0.13853687    -0.23400
H3444       H  0.67645850  0.68171510  0.19240444     0.15600
H3445       H  0.77187877  0.68909024  0.16583929     0.15600
C3446       C  0.76719943  0.69651666  0.21832910    -0.23300
H3447       H  0.66999549  0.65979836  0.14293333     0.05900
H3448       H  0.68908586  0.67737290  0.11757903     0.09100
H3449       H  0.66729136  0.69624119  0.13964287     0.09100
H3450       H  0.76938282  0.67872416  0.23192808     0.09100
H3451       H  0.76300929  0.71515121  0.23038402     0.09100
H3452       H  0.78689423  0.69942269  0.20825506     0.05800
C3453       C  0.76096597  0.72100492  0.10472435    -0.20000
C3454       C  0.77569797  0.69857217  0.11430402    -0.06500
C3455       C  0.80266845  0.70150516  0.12330057     0.14300
C3456       C  0.81407344  0.72709671  0.12294029    -0.20000
C3457       C  0.79802173  0.74980183  0.11728304    -0.06500
C3458       C  0.77175307  0.74700059  0.10673813     0.14300
C3459       C  0.75494018  0.77148540  0.09902674    -0.23400
H3460       H  0.74054605  0.71819475  0.09724412     0.15600
H3461       H  0.83412290  0.72976229  0.13157795     0.15600
C3462       C  0.81874220  0.67907997  0.13668365    -0.23300
H3463       H  0.73497564  0.76552515  0.09060624     0.05900
H3464       H  0.76560755  0.78337595  0.08346292     0.09100
H3465       H  0.75145019  0.78461117  0.11700275     0.09100
H3466       H  0.80698519  0.66030827  0.13935298     0.09100
H3467       H  0.82516745  0.68575236  0.15724460     0.09100
H3468       H  0.83704402  0.67450455  0.12468760     0.05800
C3469       C  0.68147209  0.58541074  0.13578782    -0.20000
C3470       C  0.68809565  0.57761205  0.16219137    -0.06500
C3471       C  0.70712403  0.59270416  0.17724106     0.14300
C3472       C  0.72053768  0.61433352  0.16480314    -0.20000
C3473       C  0.71486540  0.62134329  0.13779192    -0.06500
C3474       C  0.69432767  0.60730323  0.12349806     0.14300
C3475       C  0.68549375  0.61487249  0.09527094    -0.23400
H3476       H  0.66624284  0.57414082  0.12467148     0.15600
H3477       H  0.73630076  0.62500000  0.17576352     0.15600
C3478       C  0.71352099  0.58547769  0.20614485    -0.23300
H3479       H  0.68961575  0.59766575  0.08124198     0.05900
H3480       H  0.69576475  0.63321207  0.08777551     0.09100
H3481       H  0.66349283  0.61931533  0.09504220     0.09100
H3482       H  0.72136461  0.56429038  0.20719680     0.09100
H3483       H  0.69495069  0.58720470  0.21843142     0.09100
H3484       H  0.72891961  0.59921254  0.21509868     0.05800
C3485       C  0.84125973  0.64020551  0.07347222    -0.20000
C3486       C  0.84210147  0.66240393  0.05594716    -0.06500
C3487       C  0.81845681  0.67787273  0.05110823     0.14300
C3488       C  0.79453490  0.67063848  0.06329654    -0.20000
C3489       C  0.79406057  0.65024798  0.08270145    -0.06500
C3490       C  0.81761056  0.63432808  0.08766789     0.14300
C3491       C  0.81922499  0.61240024  0.10877241    -0.23400
H3492       H  0.85930979  0.62797788  0.07661269     0.15600
H3493       H  0.77653022  0.68282014  0.05950936     0.15600
C3494       C  0.81790333  0.70320964  0.03450865    -0.23300
H3495       H  0.82308864  0.59247182  0.09884228     0.05900
H3496       H  0.80071646  0.61093382  0.12089347     0.09100
H3497       H  0.83606222  0.61677791  0.12309508     0.09100
H3498       H  0.80448070  0.70039937  0.01662412     0.09100
H3499       H  0.83806486  0.70950025  0.02787332     0.09100
H3500       H  0.80974379  0.71978461  0.04735636     0.05800
C3501       C  0.74678830  0.58228170  0.04836227    -0.20000
C3502       C  0.75285498  0.55816914  0.06177909    -0.06500
C3503       C  0.75694347  0.55704734  0.08981821     0.14300
C3504       C  0.75590038  0.58131314  0.10418020    -0.20000
C3505       C  0.75121891  0.60572145  0.09041591    -0.06500
C3506       C  0.74562862  0.60638252  0.06245575     0.14300
C3507       C  0.73802361  0.63173282  0.04688742    -0.23400
H3508       H  0.74355403  0.58235023  0.02662138     0.15600
H3509       H  0.75947142  0.58143924  0.12586106     0.15600
C3510       C  0.76234179  0.53058649  0.10418602    -0.23300
H3511       H  0.71840979  0.62856516  0.03632109     0.05900
H3512       H  0.75365421  0.63586857  0.03155132     0.09100
H3513       H  0.73559739  0.64999030  0.05983797     0.09100
H3514       H  0.78119887  0.52109734  0.09653818     0.09100
H3515       H  0.74528597  0.51650927  0.10051000     0.09100
H3516       H  0.76461589  0.53362155  0.12637355     0.05800
C3517       C  0.80954085  0.33873323  0.18712489    -0.20000
C3518       C  0.78538486  0.34265226  0.17274810    -0.06500
C3519       C  0.76693550  0.32120773  0.16929555     0.14300
C3520       C  0.77282887  0.29637792  0.18102223    -0.20000
C3521       C  0.79614522  0.29291471  0.19660136    -0.06500
C3522       C  0.81504322  0.31385173  0.19956915     0.14300
C3523       C  0.84033979  0.31004061  0.21627866    -0.23400
H3524       H  0.82326459  0.35558506  0.18965927     0.15600
H3525       H  0.75890740  0.27964006  0.17832901     0.15600
C3526       C  0.74032492  0.32409504  0.15455500    -0.23300
H3527       H  0.85267419  0.32877720  0.21680787     0.05900
H3528       H  0.85277423  0.29329945  0.20765137     0.09100
H3529       H  0.83491280  0.30488139  0.23737063     0.09100
H3530       H  0.73558134  0.34528533  0.14891393     0.09100
H3531       H  0.74050461  0.31126382  0.13602288     0.09100
H3532       H  0.72376871  0.31715830  0.16773475     0.05800
C3533       C  0.72726327  0.35896256  0.21078035    -0.20000
C3534       C  0.75113916  0.37390648  0.20959545    -0.06500
C3535       C  0.76928565  0.37256774  0.23197650     0.14300
C3536       C  0.76353373  0.35577577  0.25426028    -0.20000
C3537       C  0.74084461  0.33881243  0.25430259    -0.06500
C3538       C  0.72241596  0.34065938  0.23205188     0.14300
C3539       C  0.69789665  0.32284181  0.22991353    -0.23400
H3540       H  0.71343156  0.35977022  0.19367492     0.15600
H3541       H  0.77774442  0.35484146  0.27106666     0.15600
C3542       C  0.79532825  0.38809876  0.23269876    -0.23300
H3543       H  0.68475094  0.32847838  0.21245114     0.05900
H3544       H  0.68579806  0.32470567  0.24853806     0.09100
H3545       H  0.70421400  0.30133840  0.22695605     0.09100
H3546       H  0.79523918  0.40239738  0.25011945     0.09100
H3547       H  0.79853181  0.40005812  0.21407572     0.09100
H3548       H  0.81257349  0.37374502  0.23523489     0.05800
C3549       C  0.70279117  0.42214311  0.15961452    -0.20000
C3550       C  0.72719659  0.42445460  0.17384335    -0.06500
C3551       C  0.73194583  0.44776192  0.18976538     0.14300
C3552       C  0.71129509  0.46724552  0.19256141    -0.20000
C3553       C  0.68564245  0.46355579  0.18058523    -0.06500
C3554       C  0.68291377  0.44245434  0.16102540     0.14300
C3555       C  0.66192414  0.44249760  0.13870358    -0.23400
H3556       H  0.69996169  0.40519888  0.14582006     0.15600
H3557       H  0.71483680  0.48498202  0.20514440     0.15600
C3558       C  0.75865315  0.45212041  0.20379886    -0.23300
H3559       H  0.67199043  0.43934267  0.11893506     0.05900
H3560       H  0.65116520  0.46222281  0.13685638     0.09100
H3561       H  0.64748018  0.42568276  0.14160647     0.09100
H3562       H  0.77503695  0.45252290  0.18871535     0.09100
H3563       H  0.76250883  0.43542798  0.21834331     0.09100
H3564       H  0.75900282  0.47161638  0.21522711     0.05800
C3565       C  0.82289933  0.37740958  0.12038277    -0.20000
C3566       C  0.79523724  0.37173872  0.11891964    -0.06500
C3567       C  0.78475955  0.35992924  0.09479550     0.14300
C3568       C  0.80234093  0.35294442  0.07364300    -0.20000
C3569       C  0.83010482  0.35831252  0.07518548    -0.06500
C3570       C  0.84019930  0.37181604  0.09857164     0.14300
C3571       C  0.86873504  0.38187464  0.10067679    -0.23400
H3572       H  0.83090181  0.38740596  0.13830902     0.15600
H3573       H  0.79431623  0.34257956  0.05595641     0.15600
C3574       C  0.75533273  0.35383333  0.09053969    -0.23300
H3575       H  0.86847401  0.40395055  0.10551087     0.05900
H3576       H  0.87993520  0.37942369  0.08153047     0.09100
H3577       H  0.87965841  0.37090041  0.11708875     0.09100
H3578       H  0.74274881  0.36040531  0.10764040     0.09100
H3579       H  0.75268434  0.33162749  0.08759546     0.09100
H3580       H  0.74778822  0.36454239  0.07219729     0.05800
C3581       C  0.73694583  0.41805586  0.10012419    -0.20000
C3582       C  0.75799793  0.42177391  0.11890580    -0.06500
C3583       C  0.77891444  0.43996185  0.11335450     0.14300
C3584       C  0.77866845  0.45350269  0.08875782    -0.20000
C3585       C  0.75818988  0.44924227  0.06932588    -0.06500
C3586       C  0.73679014  0.43150516  0.07519627     0.14300
C3587       C  0.71454738  0.42562558  0.05505402    -0.23400
H3588       H  0.72125888  0.40358893  0.10436930     0.15600
H3589       H  0.79481173  0.46764182  0.08485356     0.15600
C3590       C  0.80212001  0.44522949  0.13263671    -0.23300
H3591       H  0.70065827  0.40981081  0.06252514     0.05900
H3592       H  0.72334065  0.41816267  0.03580376     0.09100
H3593       H  0.70233973  0.44426170  0.05129248     0.09100
H3594       H  0.82141028  0.43965730  0.12272351     0.09100
H3595       H  0.80086285  0.43357316  0.15167858     0.09100
H3596       H  0.80250037  0.46716640  0.13800955     0.05800
C3597       C  0.23353374  0.20749853  0.00768147    -0.20000
C3598       C  0.20520695  0.20763405  0.00887930    -0.06500
C3599       C  0.19163752  0.18249208  0.00950831     0.14300
C3600       C  0.20666495  0.15807525  0.00906237    -0.20000
C3601       C  0.23494721  0.15789418  0.00725183    -0.06500
C3602       C  0.24852468  0.18304114  0.00680075     0.14300
C3603       C  0.27880647  0.18479236  0.00629729    -0.23400
H3604       H  0.24403851  0.22672511  0.00758743     0.15600
H3605       H  0.19619500  0.13891170  0.00968981     0.15600
C3606       C  0.16138781  0.18124683  0.01130759    -0.23300
H3607       H  0.28598160  0.19653943  0.02417026     0.05900
H3608       H  0.28507753  0.19533911  0.98761449     0.09100
H3609       H  0.28889391  0.16462510  0.00691592     0.09100
H3610       H  0.15212820  0.18923871  0.99244628     0.09100
H3611       H  0.15429566  0.19335297  0.02891375     0.09100
H3612       H  0.15430183  0.16005320  0.01375386     0.05800
C3613       C  0.06015807  0.29702579  0.07708560    -0.20000
C3614       C  0.08278784  0.28111561  0.07002225    -0.06500
C3615       C  0.08046751  0.25253322  0.07127358     0.14300
C3616       C  0.05566307  0.24081410  0.07803785    -0.20000
C3617       C  0.03357946  0.25646882  0.08719568    -0.06500
C3618       C  0.03603697  0.28518786  0.08654394     0.14300
C3619       C  0.01370786  0.30353422  0.09630938    -0.23400
H3620       H  0.06147758  0.31890421  0.07523657     0.15600
H3621       H  0.05426675  0.21884523  0.07806711     0.15600
C3622       C  0.10412610  0.23369420  0.06682178    -0.23300
H3623       H  0.01959396  0.32525302  0.09578848     0.05900
H3624       H  0.00855568  0.29847520  0.11748710     0.09100
H3625       H  0.99571758  0.30120665  0.08304972     0.09100
H3626       H  0.12276658  0.24457089  0.06146683     0.09100
H3627       H  0.09930419  0.21877791  0.05063966     0.09100
H3628       H  0.10832143  0.22224516  0.08573413     0.05800
C3629       C  0.08198115  0.25317291  0.95735838    -0.20000
C3630       C  0.07365425  0.27112963  0.93710407    -0.06500
C3631       C  0.08846724  0.29539303  0.93427641     0.14300
C3632       C  0.11126994  0.30065776  0.95140383    -0.20000
C3633       C  0.12031529  0.28220663  0.97168936    -0.06500
C3634       C  0.10405505  0.25835042  0.97483253     0.14300
C3635       C  0.10730849  0.23794738  0.99723970    -0.23400
H3636       H  0.07076482  0.23452647  0.95975779     0.15600
H3637       H  0.12129917  0.31994042  0.94945872     0.15600
C3638       C  0.07971066  0.31608950  0.91361929    -0.23300
H3639       H  0.08766328  0.23578487  0.00757924     0.05900
H3640       H  0.12191264  0.24362116  0.01303994     0.09100
H3641       H  0.11305312  0.21789701  0.98860126     0.09100
H3642       H  0.05877594  0.32295225  0.91792943     0.09100
H3643       H  0.08023444  0.30706719  0.89304808     0.09100
H3644       H  0.09298518  0.33415335  0.91394784     0.05800
C3645       C  0.30802134  0.50341839  0.71238481    -0.20000
C3646       C  0.33600200  0.50930245  0.71334228    -0.06500
C3647       C  0.34912088  0.51177070  0.68797778     0.14300
C3648       C  0.33408876  0.51026269  0.66351695    -0.20000
C3649       C  0.30632432  0.50456034  0.66262187    -0.06500
C3650       C  0.29341714  0.50042094  0.68760565     0.14300
C3651       C  0.26425360  0.49231900  0.68808758    -0.23400
H3652       H  0.29740046  0.50078836  0.73118261     0.15600
H3653       H  0.34441378  0.51368740  0.64477544     0.15600
C3654       C  0.37920680  0.51461231  0.68587737    -0.23300
H3655       H  0.25681057  0.49031545  0.70908560     0.05900
H3656       H  0.26182979  0.47242198  0.67771521     0.09100
H3657       H  0.25154735  0.50759391  0.67753088     0.09100
H3658       H  0.38949786  0.49843519  0.69779493     0.09100
H3659       H  0.38536514  0.53500632  0.69284399     0.09100
H3660       H  0.38612904  0.51255516  0.66465979     0.05800
C3661       C  0.47623554  0.45027809  0.77298005    -0.20000
C3662       C  0.46044943  0.43962881  0.79402788    -0.06500
C3663       C  0.46620665  0.41305724  0.80324456     0.14300
C3664       C  0.48575222  0.39735124  0.78968922    -0.20000
C3665       C  0.50063859  0.40802903  0.76818079    -0.06500
C3666       C  0.49667194  0.43526251  0.76068019     0.14300
C3667       C  0.51282415  0.44887269  0.73895541    -0.23400
H3668       H  0.47231272  0.47048178  0.76532370     0.15600
H3669       H  0.48857405  0.37625150  0.79528841     0.15600
C3670       C  0.45252658  0.40072056  0.82719770    -0.23300
H3671       H  0.49918380  0.45534388  0.72218750     0.05900
H3672       H  0.52881897  0.43557027  0.73048915     0.09100
H3673       H  0.52279201  0.46714551  0.74758912     0.09100
H3674       H  0.44034948  0.38305381  0.82046020     0.09100
H3675       H  0.43933612  0.41531556  0.83801985     0.09100
H3676       H  0.46806770  0.39363607  0.84196452     0.05800
C3677       C  0.44710326  0.55322447  0.80315110    -0.20000
C3678       C  0.43221352  0.53775578  0.78396512    -0.06500
C3679       C  0.44780898  0.52797693  0.76125095     0.14300
C3680       C  0.47565411  0.53438023  0.75843808    -0.20000
C3681       C  0.48976001  0.55098717  0.77675644    -0.06500
C3682       C  0.47501901  0.55973238  0.79988356     0.14300
C3683       C  0.48925725  0.57559379  0.82176034    -0.23400
H3684       H  0.43719644  0.55923605  0.82167908     0.15600
H3685       H  0.48607224  0.52817291  0.74021214     0.15600
C3686       C  0.43606477  0.50979613  0.73960704    -0.23300
H3687       H  0.47548465  0.58111267  0.83852999     0.05900
H3688       H  0.49763262  0.59454322  0.81353593     0.09100
H3689       H  0.50611389  0.56313590  0.83017930     0.09100
H3690       H  0.42633359  0.49174555  0.74842277     0.09100
H3691       H  0.45171450  0.50192213  0.72560642     0.09100
H3692       H  0.42179777  0.52167352  0.72704370     0.05800
C3693       C  0.21444705  0.80363258  0.01144248    -0.20000
C3694       C  0.18625511  0.80504640  0.00793131    -0.06500
C3695       C  0.17348553  0.83095963  0.00850127     0.14300
C3696       C  0.18909367  0.85437916  0.01301035    -0.20000
C3697       C  0.21723715  0.85287879  0.01611255    -0.06500
C3698       C  0.23002060  0.82710710  0.01532213     0.14300
C3699       C  0.26007985  0.82368105  0.01851709    -0.23400
H3700       H  0.22446031  0.78396660  0.01124410     0.15600
H3701       H  0.17916802  0.87395638  0.01445239     0.15600
C3702       C  0.14364435  0.83433757  0.00324706    -0.23300
H3703       H  0.26459650  0.81110826  0.03662128     0.05900
H3704       H  0.27068171  0.84327006  0.02083442     0.09100
H3705       H  0.26828610  0.81326684  0.00036140     0.09100
H3706       H  0.13194158  0.82592303  0.02016316     0.09100
H3707       H  0.13795915  0.82397097  0.98404040     0.09100
H3708       H  0.13778404  0.85610308  0.00139560     0.05800
C3709       C  0.06239859  0.72307291  0.07320344    -0.20000
C3710       C  0.05169852  0.74960944  0.07147165    -0.06500
C3711       C  0.06434105  0.76729243  0.05291316     0.14300
C3712       C  0.08770804  0.75879802  0.03840003    -0.20000
C3713       C  0.09947624  0.73251805  0.04090518    -0.06500
C3714       C  0.08486804  0.71400978  0.05758517     0.14300
C3715       C  0.09151549  0.68410390  0.05932249    -0.23400
H3716       H  0.05293391  0.70897638  0.08687581     0.15600
H3717       H  0.09597679  0.77288516  0.02407905     0.15600
C3718       C  0.05336205  0.79534688  0.04736805    -0.23300
H3719       H  0.07326656  0.67221061  0.05397840     0.05900
H3720       H  0.09776350  0.67899863  0.08033252     0.09100
H3721       H  0.10749779  0.67730057  0.04541744     0.09100
H3722       H  0.03443870  0.79972145  0.05836660     0.09100
H3723       H  0.04877689  0.79734224  0.02543074     0.09100
H3724       H  0.06867483  0.81070436  0.05313098     0.05800
C3725       C  0.07897104  0.68707598  0.91690904    -0.20000
C3726       C  0.09072066  0.70739626  0.93278911    -0.06500
C3727       C  0.09244206  0.73412311  0.92295439     0.14300
C3728       C  0.08019145  0.74046462  0.89821004    -0.20000
C3729       C  0.06609498  0.72069563  0.88337459    -0.06500
C3730       C  0.06668752  0.69336374  0.89213171     0.14300
C3731       C  0.05451481  0.67046227  0.87587786    -0.23400
H3732       H  0.07928994  0.66627724  0.92404612     0.15600
H3733       H  0.07993731  0.76135066  0.89167447     0.15600
C3734       C  0.10693288  0.75593350  0.93876066    -0.23300
H3735       H  0.03842726  0.66064863  0.88773159     0.05900
H3736       H  0.07037866  0.65505638  0.87139759     0.09100
H3737       H  0.04581950  0.67730090  0.85627951     0.09100
H3738       H  0.12836744  0.74992997  0.94195962     0.09100
H3739       H  0.09720979  0.75903321  0.95866827     0.09100
H3740       H  0.10651367  0.77568215  0.92796456     0.05800
C3741       C  0.26818134  0.71447712  0.88015385    -0.20000
C3742       C  0.24923872  0.69375811  0.88029901    -0.06500
C3743       C  0.22623098  0.69551374  0.86336419     0.14300
C3744       C  0.22263416  0.71832364  0.84669495    -0.20000
C3745       C  0.24193032  0.73906851  0.84608809    -0.06500
C3746       C  0.26542053  0.73671784  0.86288872     0.14300
C3747       C  0.28835007  0.75678878  0.86261242    -0.23400
H3748       H  0.28605110  0.71250807  0.89283437     0.15600
H3749       H  0.20465901  0.71990256  0.83411992     0.15600
C3750       C  0.20559189  0.67331018  0.86273266    -0.23300
H3751       H  0.30582613  0.74982933  0.87510519     0.05900
H3752       H  0.28176128  0.77660716  0.87117384     0.09100
H3753       H  0.29569671  0.75933820  0.84163918     0.09100
H3754       H  0.19615920  0.67193827  0.88286628     0.09100
H3755       H  0.21522584  0.65355339  0.85755544     0.09100
H3756       H  0.18935004  0.67741306  0.84760745     0.05800
C3757       C  0.32294032  0.66809319  0.82273346    -0.20000
C3758       C  0.30856386  0.65736326  0.80065238    -0.06500
C3759       C  0.28342766  0.64498561  0.80458159     0.14300
C3760       C  0.27278153  0.64441531  0.83064174    -0.20000
C3761       C  0.28700962  0.65543818  0.85265819    -0.06500
C3762       C  0.31259348  0.66694981  0.84883600     0.14300
C3763       C  0.32916721  0.67851656  0.87173506    -0.23400
H3764       H  0.34198238  0.67819602  0.81943074     0.15600
H3765       H  0.25347785  0.63499069  0.83406010     0.15600
C3766       C  0.26745842  0.63337476  0.78122380    -0.23300
H3767       H  0.33242422  0.70051922  0.86825456     0.05900
H3768       H  0.34908496  0.66804910  0.87254903     0.09100
H3769       H  0.31941715  0.67615341  0.89164119     0.09100
H3770       H  0.27935810  0.61697592  0.77129837     0.09100
H3771       H  0.26279139  0.64956365  0.76627274     0.09100
H3772       H  0.24809860  0.62460669  0.78796820     0.05800
C3773       C  0.23784208  0.68925310  0.95479984    -0.20000
C3774       C  0.23079718  0.66775400  0.93714266    -0.06500
C3775       C  0.20486304  0.65653162  0.94033457     0.14300
C3776       C  0.18668649  0.66784028  0.95931696    -0.20000
C3777       C  0.19203252  0.69170820  0.97478496    -0.06500
C3778       C  0.21955499  0.70034152  0.97423909     0.14300
C3779       C  0.23147329  0.71924314  0.99509984    -0.23400
H3780       H  0.25826137  0.69691057  0.95412288     0.15600
H3781       H  0.16786244  0.65730454  0.96183480     0.15600
C3782       C  0.19511881  0.63279582  0.92364033    -0.23300
H3783       H  0.24812485  0.70855161  0.00600032     0.05900
H3784       H  0.21680893  0.72587260  0.01051827     0.09100
H3785       H  0.23997333  0.73735556  0.98509362     0.09100
H3786       H  0.19186130  0.61505868  0.93697148     0.09100
H3787       H  0.20934185  0.62686492  0.90751337     0.09100
H3788       H  0.17567782  0.63823319  0.91358685     0.05800
C3789       C  0.34469770  0.58653564  0.87744347    -0.20000
C3790       C  0.33551823  0.57093915  0.85528361    -0.06500
C3791       C  0.30785530  0.57330343  0.84782058     0.14300
C3792       C  0.29035371  0.59050755  0.86271098    -0.20000
C3793       C  0.29953370  0.60656505  0.88451154    -0.06500
C3794       C  0.32726574  0.60439057  0.89186236     0.14300
C3795       C  0.33928032  0.62089556  0.91460071    -0.23400
H3796       H  0.36569580  0.58477701  0.88356056     0.15600
H3797       H  0.26940528  0.59239533  0.85646661     0.15600
C3798       C  0.29694031  0.55899127  0.82306067    -0.23300
H3799       H  0.35624347  0.63312714  0.90693362     0.05900
H3800       H  0.34710702  0.60704717  0.93057298     0.09100
H3801       H  0.32449193  0.63498757  0.92389902     0.09100
H3802       H  0.29712367  0.53669282  0.82596668     0.09100
H3803       H  0.30930778  0.56414723  0.80523474     0.09100
H3804       H  0.27576156  0.56518289  0.81856262     0.05800
C3805       C  0.24751640  0.58775761  0.92873837    -0.20000
C3806       C  0.26270796  0.61017609  0.93697950    -0.06500
C3807       C  0.27611877  0.61029936  0.96220099     0.14300
C3808       C  0.27484077  0.58715546  0.97832131    -0.20000
C3809       C  0.25955233  0.56465043  0.97016977    -0.06500
C3810       C  0.24498411  0.56523332  0.94546004     0.14300
C3811       C  0.22749447  0.54203116  0.93616296    -0.23400
H3812       H  0.23771763  0.58785696  0.90902294     0.15600
H3813       H  0.28566390  0.58675955  0.99750577     0.15600
C3814       C  0.29226317  0.63411374  0.97242577    -0.23300
H3815       H  0.21884169  0.54556313  0.91564210     0.05900
H3816       H  0.21040574  0.53954098  0.95022584     0.09100
H3817       H  0.23962103  0.52306490  0.93550425     0.09100
H3818       H  0.28394356  0.64123347  0.99201421     0.09100
H3819       H  0.29187626  0.65158149  0.95836101     0.09100
H3820       H  0.31360504  0.62772768  0.97557943     0.05800
C3821       C  0.29200535  0.31150298  0.86512920    -0.20000
C3822       C  0.27176585  0.33105312  0.86031453    -0.06500
C3823       C  0.24667293  0.32307615  0.84947263     0.14300
C3824       C  0.24301010  0.29586082  0.84214599    -0.20000
C3825       C  0.26388953  0.27650043  0.84522317    -0.06500
C3826       C  0.28836755  0.28418500  0.85776539     0.14300
C3827       C  0.31119047  0.26416077  0.86182042    -0.23400
H3828       H  0.31108439  0.31800609  0.87374395     0.15600
H3829       H  0.22414152  0.28998031  0.83255115     0.15600
C3830       C  0.22400415  0.34297290  0.84405882    -0.23300
H3831       H  0.32907460  0.27386567  0.87138354     0.05900
H3832       H  0.31741936  0.25555434  0.84201478     0.09100
H3833       H  0.30461510  0.24748809  0.87521343     0.09100
H3834       H  0.22930336  0.36412349  0.84958441     0.09100
H3835       H  0.20606218  0.33713799  0.85588178     0.09100
H3836       H  0.21861748  0.34258716  0.82219347     0.05800
C3837       C  0.28113973  0.36027968  0.80191178    -0.20000
C3838       C  0.30201680  0.36425915  0.82088931    -0.06500
C3839       C  0.32870902  0.35725468  0.81354410     0.14300
C3840       C  0.33366553  0.34603699  0.78762254    -0.20000
C3841       C  0.31246108  0.34081793  0.76918128    -0.06500
C3842       C  0.28585509  0.34833748  0.77647789     0.14300
C3843       C  0.26226516  0.34404540  0.75744570    -0.23400
H3844       H  0.26080143  0.36621954  0.80727050     0.15600
H3845       H  0.35402813  0.34014988  0.78220238     0.15600
C3846       C  0.35176204  0.36052902  0.83330663    -0.23300
H3847       H  0.24319776  0.35237995  0.76587275     0.05900
H3848       H  0.25923872  0.32201609  0.75377834     0.09100
H3849       H  0.26599993  0.35437490  0.73793830     0.09100
H3850       H  0.34780042  0.34866720  0.85186335     0.09100
H3851       H  0.35418657  0.38223830  0.83879293     0.09100
H3852       H  0.37112158  0.35322089  0.82465288     0.05800
C3853       C  0.25835059  0.34119713  0.92276753    -0.20000
C3854       C  0.25195584  0.36490933  0.90809870    -0.06500
C3855       C  0.22739474  0.37869683  0.91423338     0.14300
C3856       C  0.21071035  0.36898983  0.93502172    -0.20000
C3857       C  0.21717644  0.34535428  0.94956468    -0.06500
C3858       C  0.24117765  0.33112508  0.94301181     0.14300
C3859       C  0.24832757  0.30490499  0.95690876    -0.23400
H3860       H  0.27694361  0.33040861  0.91835421     0.15600
H3861       H  0.19201155  0.37959899  0.93950406     0.15600
C3862       C  0.21728872  0.40295078  0.89854226    -0.23300
H3863       H  0.26702495  0.29560588  0.94862926     0.05900
H3864       H  0.23167219  0.29015572  0.95421642     0.09100
H3865       H  0.25173371  0.30880286  0.97872681     0.09100
H3866       H  0.23009586  0.40785256  0.88108405     0.09100
H3867       H  0.19678094  0.39874775  0.89038322     0.09100
H3868       H  0.21619064  0.42094171  0.91215765     0.05800
C3869       C  0.34930864  0.45911841  0.85059764    -0.20000
C3870       C  0.34977259  0.46194471  0.82211386    -0.06500
C3871       C  0.33567729  0.44175471  0.80708367     0.14300
C3872       C  0.31653246  0.42542937  0.82008053    -0.20000
C3873       C  0.31622449  0.42221843  0.84843355    -0.06500
C3874       C  0.33448757  0.43856532  0.86362897     0.14300
C3875       C  0.34133835  0.43332451  0.89286934    -0.23400
H3876       H  0.36234112  0.47185540  0.86288912     0.15600
H3877       H  0.30344476  0.41328069  0.80743953     0.15600
C3878       C  0.34335185  0.43281876  0.77897215    -0.23300
H3879       H  0.36359490  0.43328933  0.89576384     0.05900
H3880       H  0.33467565  0.41306908  0.89953773     0.09100
H3881       H  0.33250431  0.44958639  0.90576783     0.09100
H3882       H  0.36155904  0.44301281  0.77145460     0.09100
H3883       H  0.32610193  0.43559333  0.76473384     0.09100
H3884       H  0.34852190  0.41079257  0.77929321     0.05800
C3885       C  0.28942601  0.41020613  0.93323447    -0.20000
C3886       C  0.28232339  0.41963127  0.90724962    -0.06500
C3887       C  0.27107315  0.44600596  0.90449654     0.14300
C3888       C  0.26671433  0.46183849  0.92785142    -0.20000
C3889       C  0.27315421  0.45196475  0.95374745    -0.06500
C3890       C  0.28489500  0.42594959  0.95645025     0.14300
C3891       C  0.29173526  0.41438141  0.98389161    -0.23400
H3892       H  0.29800157  0.38996762  0.93539287     0.15600
H3893       H  0.25797284  0.48192514  0.92579840     0.15600
C3894       C  0.26232815  0.45767494  0.87766290    -0.23300
H3895       H  0.30005546  0.39339211  0.98238707     0.05900
H3896       H  0.27328207  0.41373653  0.99641631     0.09100
H3897       H  0.30704797  0.42721670  0.99419533     0.09100
H3898       H  0.26501755  0.44330399  0.86060564     0.09100
H3899       H  0.24058326  0.46324328  0.87838138     0.09100
H3900       H  0.27416122  0.47621678  0.87348768     0.05800
C3901       C  0.38019364  0.48121632  0.30540460    -0.20000
C3902       C  0.36171304  0.48593384  0.28421839    -0.06500
C3903       C  0.33596732  0.49669812  0.28994347     0.14300
C3904       C  0.32839526  0.50008835  0.31696165    -0.20000
C3905       C  0.34596464  0.49283065  0.33822697    -0.06500
C3906       C  0.37256931  0.48454295  0.33243172     0.14300
C3907       C  0.39300306  0.47868000  0.35434565    -0.23400
H3908       H  0.40043274  0.47422252  0.30075572     0.15600
H3909       H  0.30804779  0.50666987  0.32164222     0.15600
C3910       C  0.31666302  0.50474054  0.26759702    -0.23300
H3911       H  0.41016118  0.49287920  0.35253213     0.05900
H3912       H  0.40071989  0.45754849  0.35221665     0.09100
H3913       H  0.38440928  0.48108810  0.37480890     0.09100
H3914       H  0.31090117  0.48663339  0.25547909     0.09100
H3915       H  0.32630930  0.51984322  0.25425741     0.09100
H3916       H  0.29788231  0.51402180  0.27570162     0.05800
C3917       C  0.47449203  0.39283429  0.18956789    -0.20000
C3918       C  0.45227737  0.40583090  0.20126097    -0.06500
C3919       C  0.44680247  0.40214090  0.22891116     0.14300
C3920       C  0.46626540  0.38961543  0.24513281    -0.20000
C3921       C  0.48926063  0.37754512  0.23387688    -0.06500
C3922       C  0.49207853  0.37699763  0.20544915     0.14300
C3923       C  0.51191501  0.35877066  0.19126344    -0.23400
H3924       H  0.47775221  0.39470821  0.16801807     0.15600
H3925       H  0.46350527  0.38946125  0.26674753     0.15600
C3926       C  0.42048985  0.41114302  0.24131894    -0.23300
H3927       H  0.50087520  0.34540741  0.17684787     0.05900
H3928       H  0.52290198  0.34524151  0.20554319     0.09100
H3929       H  0.52633753  0.37114860  0.17965785     0.09100
H3930       H  0.40366456  0.39962174  0.23190164     0.09100
H3931       H  0.41670791  0.43300781  0.23811493     0.09100
H3932       H  0.42013465  0.40727938  0.26343313     0.05800
C3933       C  0.44083128  0.54143895  0.19381518    -0.20000
C3934       C  0.43635802  0.51592171  0.20655991    -0.06500
C3935       C  0.45479389  0.51069606  0.22893323     0.14300
C3936       C  0.47469982  0.53003760  0.23752444    -0.20000
C3937       C  0.47816818  0.55560197  0.22543576    -0.06500
C3938       C  0.46049771  0.56100691  0.20301770     0.14300
C3939       C  0.46202196  0.58734751  0.18779795    -0.23400
H3940       H  0.42914407  0.54646081  0.17596050     0.15600
H3941       H  0.48724297  0.52525608  0.25491992     0.15600
C3942       C  0.45451867  0.48513124  0.24549635    -0.23300
H3943       H  0.46603541  0.58305466  0.16613503     0.05900
H3944       H  0.47827272  0.60074289  0.19546508     0.09100
H3945       H  0.44250308  0.59846389  0.18946304     0.09100
H3946       H  0.47454012  0.47485804  0.24450270     0.09100
H3947       H  0.43937162  0.47058809  0.23860968     0.09100
H3948       H  0.45024682  0.49026467  0.26694309     0.05800
C3949       C  0.22549277  0.27385721  0.18727460    -0.20000
C3950       C  0.23721987  0.25091818  0.17450366    -0.06500
C3951       C  0.25457961  0.25645545  0.15211165     0.14300
C3952       C  0.26001340  0.28361052  0.14423394    -0.20000
C3953       C  0.24876258  0.30629972  0.15733604    -0.06500
C3954       C  0.23073304  0.30103458  0.17897393     0.14300
C3955       C  0.21583985  0.32347685  0.19336005    -0.23400
H3956       H  0.21185335  0.27066782  0.20393078     0.15600
H3957       H  0.27359018  0.28729966  0.12764908     0.15600
C3958       C  0.26763941  0.23408231  0.13571052    -0.23300
H3959       H  0.22053962  0.32272098  0.21532468     0.05900
H3960       H  0.19378099  0.32060267  0.19067381     0.09100
H3961       H  0.22100047  0.34385172  0.18557553     0.09100
H3962       H  0.25191138  0.22081810  0.12665057     0.09100
H3963       H  0.28164415  0.22202096  0.14867928     0.09100
H3964       H  0.27968490  0.24217272  0.11877696     0.05800
C3965       C  0.32285938  0.30900382  0.20687347    -0.20000
C3966       C  0.30807728  0.30841513  0.23104638    -0.06500
C3967       C  0.28413249  0.32428975  0.23317705     0.14300
C3968       C  0.27623731  0.34049151  0.21131759    -0.20000
C3969       C  0.29004392  0.33945460  0.18691171    -0.06500
C3970       C  0.31378239  0.32389177  0.18458625     0.14300
C3971       C  0.32893289  0.32218399  0.15832323    -0.23400
H3972       H  0.34109306  0.29684504  0.20494511     0.15600
H3973       H  0.25833619  0.35309566  0.21281947     0.15600
C3974       C  0.26624476  0.32427111  0.25768346    -0.23300
H3975       H  0.34689019  0.30859921  0.15993652     0.05900
H3976       H  0.33593386  0.34269019  0.15257330     0.09100
H3977       H  0.31560172  0.31410950  0.14204749     0.09100
H3978       H  0.27694203  0.33295034  0.27531328     0.09100
H3979       H  0.25922838  0.30339958  0.26196194     0.09100
H3980       H  0.24791552  0.33709038  0.25465183     0.05800
C3981       C  0.32409200  0.43036013  0.18934288    -0.20000
C3982       C  0.34730267  0.43624404  0.17369756    -0.06500
C3983       C  0.34741492  0.42216838  0.14800357     0.14300
C3984       C  0.32754164  0.40194283  0.14092934    -0.20000
C3985       C  0.30508936  0.39544801  0.15713024    -0.06500
C3986       C  0.30354745  0.41107475  0.18159769     0.14300
C3987       C  0.27946582  0.40923374  0.19972927    -0.23400
H3988       H  0.32051652  0.44213171  0.20728992     0.15600
H3989       H  0.32981828  0.39106627  0.12211264     0.15600
C3990       C  0.36780325  0.42811082  0.12648728    -0.23300
H3991       H  0.27049196  0.42980219  0.20258087     0.05900
H3992       H  0.28587689  0.40118882  0.21975730     0.09100
H3993       H  0.26340110  0.39617629  0.19118650     0.09100
H3994       H  0.38044732  0.44593662  0.13101699     0.09100
H3995       H  0.35708766  0.43266417  0.10716425     0.09100
H3996       H  0.38103017  0.41004291  0.12343682     0.05800
C3997       C  0.24371775  0.32196277  0.08002379    -0.20000
C3998       C  0.23325213  0.33544266  0.10284043    -0.06500
C3999       C  0.20476669  0.33847869  0.10359863     0.14300
C4000       C  0.18804571  0.32864850  0.08205173    -0.20000
C4001       C  0.19811599  0.31453601  0.05909124    -0.06500
C4002       C  0.22709676  0.31171838  0.05850123     0.14300
C4003       C  0.24218151  0.29844532  0.03561761    -0.23400
H4004       H  0.26542838  0.31942236  0.07884292     0.15600
H4005       H  0.16672471  0.33295147  0.08318052     0.15600
C4006       C  0.19158446  0.35231027  0.12723747    -0.23300
H4007       H  0.25730050  0.31285060  0.02777097     0.05900
H4008       H  0.22922627  0.29245168  0.01842390     0.09100
H4009       H  0.25303566  0.28009674  0.04315187     0.09100
H4010       H  0.19967249  0.37303880  0.13005489     0.09100
H4011       H  0.19551221  0.34024707  0.14560878     0.09100
H4012       H  0.16936259  0.35402042  0.12454362     0.05800
C4013       C  0.24447328  0.40922512  0.10517409    -0.20000
C4014       C  0.26611438  0.39094781  0.10315817    -0.06500
C4015       C  0.28452933  0.39336678  0.08174950     0.14300
C4016       C  0.28235721  0.41586880  0.06453044    -0.20000
C4017       C  0.26109662  0.43477801  0.06705529    -0.06500
C4018       C  0.24107841  0.43048821  0.08674481     0.14300
C4019       C  0.21636447  0.44834662  0.08889725    -0.23400
H4020       H  0.23021162  0.40693283  0.12141780     0.15600
H4021       H  0.29711598  0.41841292  0.04872875     0.15600
C4022       C  0.30608017  0.37236196  0.07608466    -0.23300
H4023       H  0.20363832  0.44272810  0.10632932     0.05900
H4024       H  0.20382201  0.44635118  0.07027795     0.09100
H4025       H  0.22241984  0.46971716  0.09155235     0.09100
H4026       H  0.30236061  0.36322470  0.05581746     0.09100
H4027       H  0.30646379  0.35569936  0.09111767     0.09100
H4028       H  0.32619585  0.38209658  0.07602211     0.05800
C4029       C  0.22274614  0.68678804  0.18466475    -0.20000
C4030       C  0.24913692  0.67670424  0.18162076    -0.06500
C4031       C  0.27120797  0.69447258  0.18575201     0.14300
C4032       C  0.26615143  0.72182512  0.19200005    -0.20000
C4033       C  0.23980533  0.73208969  0.19345982    -0.06500
C4034       C  0.21779197  0.71434235  0.19044566     0.14300
C4035       C  0.18917146  0.72460586  0.19234503    -0.23400
H4036       H  0.20597786  0.67312271  0.18147981     0.15600
H4037       H  0.28295968  0.73563626  0.19423335     0.15600
C4038       C  0.30019968  0.68624604  0.18132674    -0.23300
H4039       H  0.17439027  0.70808734  0.18884512     0.05900
H4040       H  0.18540247  0.74058648  0.17694130     0.09100
H4041       H  0.18570083  0.73316179  0.21284387     0.09100
H4042       H  0.30960831  0.70052671  0.16695551     0.09100
H4043       H  0.30246251  0.66573852  0.17239107     0.09100
H4044       H  0.31145964  0.68710487  0.20084742     0.05800
C4045       C  0.30876901  0.62449906  0.21111285    -0.20000
C4046       C  0.28099000  0.63001832  0.21001836    -0.06500
C4047       C  0.26748573  0.63669143  0.23429801     0.14300
C4048       C  0.28269077  0.64099290  0.25814070    -0.20000
C4049       C  0.31078111  0.63702340  0.25865984    -0.06500
C4050       C  0.32360434  0.62720387  0.23514321     0.14300
C4051       C  0.35332738  0.62087334  0.23482811    -0.23400
H4052       H  0.31937557  0.61940239  0.19274179     0.15600
H4053       H  0.27272980  0.64866598  0.27608730     0.15600
C4054       C  0.23724869  0.63932087  0.23582536    -0.23300
H4055       H  0.36004337  0.61340459  0.21472611     0.05900
H4056       H  0.35771444  0.60464206  0.24967203     0.09100
H4057       H  0.36500871  0.63931817  0.23980302     0.09100
H4058       H  0.22967697  0.62519335  0.25139990     0.09100
H4059       H  0.22696851  0.63411190  0.21649877     0.09100
H4060       H  0.23161975  0.66044786  0.24158797     0.05800
C4061       C  0.20196080  0.64420291  0.12091400    -0.20000
C4062       C  0.22706223  0.65552765  0.12751635    -0.06500
C4063       C  0.23517251  0.67976999  0.11465189     0.14300
C4064       C  0.21788772  0.69188317  0.09556428    -0.20000
C4065       C  0.19333416  0.67993181  0.08840025    -0.06500
C4066       C  0.18510822  0.65603518  0.10127558     0.14300
C4067       C  0.15917698  0.64241173  0.09320089    -0.23400
H4068       H  0.19589380  0.62555645  0.13063641     0.15600
H4069       H  0.22421502  0.70994752  0.08496968     0.15600
C4070       C  0.26245408  0.69238909  0.11881959    -0.23300
H4071       H  0.15611557  0.62332514  0.10462257     0.05900
H4072       H  0.15946438  0.63732229  0.07129141     0.09100
H4073       H  0.14188481  0.65624636  0.09731511     0.09100
H4074       H  0.27248640  0.69467685  0.09898901     0.09100
H4075       H  0.27599760  0.67977535  0.13152070     0.09100
H4076       H  0.26008131  0.71278163  0.12827598     0.05800
C4077       C  0.30967250  0.58654379  0.14634365    -0.20000
C4078       C  0.28910935  0.58520572  0.16560485    -0.06500
C4079       C  0.28954887  0.56445237  0.18518158     0.14300
C4080       C  0.31077494  0.54548598  0.18497216    -0.20000
C4081       C  0.33122823  0.54694000  0.16564204    -0.06500
C4082       C  0.33073290  0.56756265  0.14614539     0.14300
C4083       C  0.35218185  0.56908558  0.12490346    -0.23400
H4084       H  0.30946543  0.60283654  0.13166898     0.15600
H4085       H  0.31139631  0.52933912  0.19981468     0.15600
C4086       C  0.26795518  0.56157665  0.20615252    -0.23300
H4087       H  0.34836938  0.58614714  0.11069052     0.05900
H4088       H  0.35263079  0.54987636  0.11301697     0.09100
H4089       H  0.37218607  0.57221550  0.13466979     0.09100
H4090       H  0.25869925  0.54117780  0.20427430     0.09100
H4091       H  0.25158787  0.57694251  0.20400887     0.09100
H4092       H  0.27707618  0.56371102  0.22666086     0.05800
C4093       C  0.23813245  0.57059513  0.12340576    -0.20000
C4094       C  0.25007003  0.59585862  0.11857196    -0.06500
C4095       C  0.26128585  0.60087695  0.09286129     0.14300
C4096       C  0.26054112  0.58035373  0.07299673    -0.20000
C4097       C  0.24974538  0.55468129  0.07837691    -0.06500
C4098       C  0.23808148  0.54990146  0.10375441     0.14300
C4099       C  0.22725587  0.52247994  0.11079952    -0.23400
H4100       H  0.23002139  0.56657528  0.14326191     0.15600
H4101       H  0.26964146  0.58399146  0.05349594     0.15600
C4102       C  0.27595445  0.62658828  0.08618023    -0.23300
H4103       H  0.21927027  0.52201317  0.13169876     0.05900
H4104       H  0.24380087  0.50719310  0.10941925     0.09100
H4105       H  0.21060464  0.51714032  0.09661704     0.09100
H4106       H  0.29649461  0.62147652  0.07884489     0.09100
H4107       H  0.27854571  0.64007535  0.10387390     0.09100
H4108       H  0.26475714  0.63775355  0.07007269     0.05800
C4109       C  0.01705589  0.21155365  0.18669305    -0.20000
C4110       C  0.00011130  0.20213432  0.16552329    -0.06500
C4111       C  0.98729841  0.17671687  0.16944007     0.14300
C4112       C  0.99102152  0.16232333  0.19415534    -0.20000
C4113       C  0.00801808  0.17186247  0.21515384    -0.06500
C4114       C  0.02130354  0.19684655  0.21100077     0.14300
C4115       C  0.04044298  0.20840472  0.23179589    -0.23400
H4116       H  0.02727072  0.23072517  0.18416507     0.15600
H4117       H  0.98054524  0.14334341  0.19706196     0.15600
C4118       C  0.97026861  0.16366206  0.14773507    -0.23300
H4119       H  0.06061830  0.21095904  0.22261801     0.05900
H4120       H  0.04294671  0.19512766  0.24972404     0.09100
H4121       H  0.03286569  0.22855408  0.23869718     0.09100
H4122       H  0.97054606  0.17497120  0.12845481     0.09100
H4123       H  0.97806950  0.14286410  0.14349102     0.09100
H4124       H  0.94910495  0.16225959  0.15470051     0.05800
C4125       C  0.04132641  0.06869120  0.26314058    -0.20000
C4126       C  0.04807043  0.08196591  0.28793565    -0.06500
C4127       C  0.06375429  0.06536912  0.30623928     0.14300
C4128       C  0.07342770  0.03869145  0.29868186    -0.20000
C4129       C  0.06752545  0.02626753  0.27345246    -0.06500
C4130       C  0.05075506  0.04200590  0.25580981     0.14300
C4131       C  0.04236815  0.03033256  0.22883098    -0.23400
H4132       H  0.02750255  0.07885849  0.24941119     0.15600
H4133       H  0.08689040  0.02784913  0.31234620     0.15600
C4134       C  0.07055299  0.07537166  0.33424545    -0.23300
H4135       H  0.02869966  0.04434169  0.21753109     0.05900
H4136       H  0.03159871  0.01092398  0.23194866     0.09100
H4137       H  0.06031253  0.02641706  0.21618314     0.09100
H4138       H  0.05187072  0.08089883  0.34523341     0.09100
H4139       H  0.08405469  0.09307183  0.33300826     0.09100
H4140       H  0.08136213  0.05963322  0.34632287     0.05800
C4141       C  0.95393903  0.03175705  0.29706409    -0.20000
C4142       C  0.94898384  0.05188586  0.31674870    -0.06500
C4143       C  0.92323569  0.05285073  0.32888047     0.14300
C4144       C  0.90217006  0.03748216  0.31760174    -0.20000
C4145       C  0.90660923  0.01972950  0.29578018    -0.06500
C4146       C  0.93323550  0.01590601  0.28621728     0.14300
C4147       C  0.94037031  0.99856169  0.26205021    -0.23400
H4148       H  0.97350359  0.03006942  0.28773882     0.15600
H4149       H  0.88204855  0.03945563  0.32583944     0.15600
C4150       C  0.91750185  0.06915997  0.35404391    -0.23300
H4151       H  0.95289614  0.01032026  0.24782475     0.05900
H4152       H  0.92252234  0.99230087  0.25022884     0.09100
H4153       H  0.95210009  0.98043428  0.26876820     0.09100
H4154       H  0.90290874  0.08576881  0.34931913     0.09100
H4155       H  0.93604417  0.07782872  0.36322543     0.09100
H4156       H  0.90859875  0.05572193  0.36950365     0.05800
C4157       C  0.73368654  0.27728962  0.49766702    -0.20000
C4158       C  0.73415212  0.30578019  0.49562507    -0.06500
C4159       C  0.70928765  0.32014003  0.49386295     0.14300
C4160       C  0.68486979  0.30588579  0.49620151    -0.20000
C4161       C  0.68459581  0.27755652  0.49935539    -0.06500
C4162       C  0.70929146  0.26305165  0.49917963     0.14300
C4163       C  0.71047943  0.23250823  0.50018674    -0.23400
H4164       H  0.75258865  0.26604978  0.49828763     0.15600
H4165       H  0.66587114  0.31687406  0.49585563     0.15600
C4166       C  0.70833243  0.35019070  0.48824045    -0.23300
H4167       H  0.72238270  0.22598442  0.51818285     0.05900
H4168       H  0.72051825  0.22463383  0.48172545     0.09100
H4169       H  0.69022831  0.22320330  0.50113504     0.09100
H4170       H  0.71967961  0.35455156  0.46952244     0.09100
H4171       H  0.71713948  0.36177165  0.50539609     0.09100
H4172       H  0.68727928  0.35760629  0.48524453     0.05800
C4173       C  0.83354515  0.42302129  0.41016489    -0.20000
C4174       C  0.81632542  0.41373413  0.43052926    -0.06500
C4175       C  0.78966465  0.42446337  0.43145270     0.14300
C4176       C  0.78141344  0.44455882  0.41285903    -0.20000
C4177       C  0.79834203  0.45354667  0.39221122    -0.06500
C4178       C  0.82486918  0.44262110  0.39096407     0.14300
C4179       C  0.84448381  0.45114734  0.36965484    -0.23400
H4180       H  0.85398129  0.41506385  0.40938061     0.15600
H4181       H  0.76123550  0.45303824  0.41417682     0.15600
C4182       C  0.76922412  0.41392860  0.45113647    -0.23300
H4183       H  0.85119853  0.43303950  0.35795494     0.05900
H4184       H  0.86234313  0.46058713  0.37951708     0.09100
H4185       H  0.83564453  0.46599094  0.35520390     0.09100
H4186       H  0.77430605  0.42011804  0.47210289     0.09100
H4187       H  0.76827549  0.39141541  0.44975635     0.09100
H4188       H  0.74872263  0.42218626  0.44678259     0.05800
C4189       C  0.77939974  0.40137341  0.53378446    -0.20000
C4190       C  0.80656234  0.39179316  0.53563064    -0.06500
C4191       C  0.82434415  0.41014338  0.54975267     0.14300
C4192       C  0.81437925  0.43432456  0.56297483    -0.20000
C4193       C  0.78691826  0.44238694  0.56255609    -0.06500
C4194       C  0.76946226  0.42525977  0.54722829     0.14300
C4195       C  0.73998970  0.43246489  0.54411339    -0.23400
H4196       H  0.76558738  0.39114293  0.52037491     0.15600
H4197       H  0.82846709  0.44698318  0.57410922     0.15600
C4198       C  0.85444730  0.40585072  0.55087005    -0.23300
H4199       H  0.72904069  0.41745607  0.53134178     0.05900
H4200       H  0.73765154  0.45262432  0.53454770     0.09100
H4201       H  0.73017952  0.43303083  0.56404293     0.09100
H4202       H  0.86164483  0.38866752  0.53843498     0.09100
H4203       H  0.86098162  0.40246498  0.57214999     0.09100
H4204       H  0.86455807  0.42426233  0.54314982     0.05800
C4205       C  0.03725250  0.19729651  0.81694460    -0.20000
C4206       C  0.02786133  0.17111226  0.82219435    -0.06500
C4207       C  0.02571183  0.16247043  0.84921135     0.14300
C4208       C  0.03209796  0.18058995  0.87048746    -0.20000
C4209       C  0.04020931  0.20740030  0.86531568    -0.06500
C4210       C  0.04301444  0.21567490  0.83803432     0.14300
C4211       C  0.04984754  0.24432601  0.83029449    -0.23400
H4212       H  0.03913980  0.20371527  0.79611116     0.15600
H4213       H  0.02927910  0.17442838  0.89126532     0.15600
C4214       C  0.01564266  0.13448045  0.85537142    -0.23300
H4215       H  0.06937963  0.24437881  0.81949347     0.05900
H4216       H  0.05119883  0.25825609  0.84785612     0.09100
H4217       H  0.03386266  0.25256597  0.81663695     0.09100
H4218       H  0.02936491  0.11898098  0.84643228     0.09100
H4219       H  0.99507651  0.13196946  0.84662669     0.09100
H4220       H  0.01464864  0.13090749  0.87750356     0.05800
C4221       C  0.06845259  0.08063581  0.76801917    -0.20000
C4222       C  0.07098855  0.09785407  0.74541694    -0.06500
C4223       C  0.09151628  0.09095240  0.72646035     0.14300
C4224       C  0.11127142  0.07126116  0.73340580    -0.20000
C4225       C  0.10882585  0.05517821  0.75653791    -0.06500
C4226       C  0.08586331  0.05861115  0.77280276     0.14300
C4227       C  0.07815624  0.03889132  0.79463025    -0.23400
H4228       H  0.05142875  0.08299194  0.78131319     0.15600
H4229       H  0.12835712  0.06787492  0.72027858     0.15600
C4230       C  0.09212696  0.10241851  0.69824728    -0.23300
H4231       H  0.07538549  0.04982170  0.81410215     0.05900
H4232       H  0.09312401  0.02237985  0.79776430     0.09100
H4233       H  0.05870742  0.02927480  0.78899536     0.09100
H4234       H  0.09854013  0.12382750  0.69854336     0.09100
H4235       H  0.07202609  0.10050258  0.68835280     0.09100
H4236       H  0.10679590  0.09124780  0.68537563     0.05800
C4237       C  0.95942434  0.02309982  0.76902512    -0.20000
C4238       C  0.94193359  0.01014594  0.75086328    -0.06500
C4239       C  0.94211811  0.01697802  0.72308112     0.14300
C4240       C  0.96013075  0.03651164  0.71419211    -0.20000
C4241       C  0.97690815  0.05003618  0.73246718    -0.06500
C4242       C  0.97670222  0.04336471  0.76021639     0.14300
C4243       C  0.99375741  0.05830052  0.78068012    -0.23400
H4244       H  0.95885830  0.01795012  0.79031594     0.15600
H4245       H  0.96011167  0.04241616  0.69308891     0.15600
C4246       C  0.92231156  0.00601402  0.70260860    -0.23300
H4247       H  0.98948051  0.05178987  0.80167294     0.05900
H4248       H  0.98980550  0.08051225  0.77936039     0.09100
H4249       H  0.01529906  0.05392294  0.77686269     0.09100
H4250       H  0.90659875  0.99342925  0.71182760     0.09100
H4251       H  0.93327857  0.99392852  0.68714354     0.09100
H4252       H  0.91167979  0.02317055  0.69243248     0.05800
C4253       C  0.88802767  0.24215188  0.73327985    -0.20000
C4254       C  0.88774908  0.22015442  0.71514969    -0.06500
C4255       C  0.87915164  0.19448655  0.72446638     0.14300
C4256       C  0.87228874  0.19129033  0.75185966    -0.20000
C4257       C  0.87317914  0.21322083  0.77015417    -0.06500
C4258       C  0.88070775  0.23915366  0.76048026     0.14300
C4259       C  0.88031010  0.26405065  0.77844870    -0.23400
H4260       H  0.89413087  0.26189960  0.72605370     0.15600
H4261       H  0.86635491  0.17144026  0.75900138     0.15600
C4262       C  0.87608935  0.17029651  0.70598222    -0.23300
H4263       H  0.88438170  0.28285439  0.76689552     0.05900
H4264       H  0.89606883  0.26237332  0.79446076     0.09100
H4265       H  0.86015749  0.26641127  0.78784112     0.09100
H4266       H  0.87944336  0.17535451  0.68452927     0.09100
H4267       H  0.85524132  0.16239320  0.70738723     0.09100
H4268       H  0.89058946  0.15407674  0.71213656     0.05800
C4269       C  0.83498915  0.23810863  0.68149563    -0.20000
C4270       C  0.85681393  0.25522568  0.67737765    -0.06500
C4271       C  0.85512999  0.28313700  0.68327201     0.14300
C4272       C  0.83052843  0.29374852  0.69163938    -0.20000
C4273       C  0.80830438  0.27672926  0.69490067    -0.06500
C4274       C  0.81057666  0.24846058  0.69047603     0.14300
C4275       C  0.78719499  0.22934803  0.69363269    -0.23400
H4276       H  0.83730690  0.21652251  0.67753504     0.15600
H4277       H  0.82848234  0.31546075  0.69512315     0.15600
C4278       C  0.87886320  0.30188825  0.68139652    -0.23300
H4279       H  0.79288359  0.20803282  0.68859926     0.05900
H4280       H  0.77039983  0.23547475  0.67986766     0.09100
H4281       H  0.78021787  0.22969415  0.71489591     0.09100
H4282       H  0.87460400  0.31770515  0.66594577     0.09100
H4283       H  0.89776406  0.29108146  0.67596508     0.09100
H4284       H  0.88231359  0.31193912  0.70128274     0.05800
C4285       C  0.95040327  0.20619941  0.70944441    -0.20000
C4286       C  0.93793586  0.19667087  0.68572727    -0.06500
C4287       C  0.94441635  0.17029356  0.67666704     0.14300
C4288       C  0.96299440  0.15426613  0.69160726    -0.20000
C4289       C  0.97631829  0.16363427  0.71553091    -0.06500
C4290       C  0.97025141  0.19107029  0.72350986     0.14300
C4291       C  0.98540201  0.20701019  0.74471278    -0.23400
H4292       H  0.94577339  0.22672975  0.71618475     0.15600
H4293       H  0.96819225  0.13472803  0.68304247     0.15600
C4294       C  0.93193588  0.15879646  0.65119232    -0.23300
H4295       H  0.97219783  0.21104015  0.76230592     0.05900
H4296       H  0.99116676  0.22697110  0.73623203     0.09100
H4297       H  0.00443022  0.19729199  0.75117255     0.09100
H4298       H  0.93866459  0.17047849  0.63346116     0.09100
H4299       H  0.90962705  0.15966594  0.65225754     0.09100
H4300       H  0.93796562  0.13725294  0.64786361     0.05800
C4301       C  0.85276674  0.26901533  0.58237853    -0.20000
C4302       C  0.86529300  0.29388871  0.57654253    -0.06500
C4303       C  0.88720620  0.30182058  0.59339019     0.14300
C4304       C  0.89589330  0.28513061  0.61530696    -0.20000
C4305       C  0.88294955  0.26058757  0.62164184    -0.06500
C4306       C  0.86108657  0.25254049  0.60460696     0.14300
C4307       C  0.84638875  0.22629672  0.60895138    -0.23400
H4308       H  0.83616967  0.26244584  0.56956763     0.15600
H4309       H  0.91293107  0.29138161  0.62767643     0.15600
C4310       C  0.90189236  0.32775514  0.58774122    -0.23300
H4311       H  0.84804551  0.21338253  0.59054500     0.05900
H4312       H  0.82475717  0.23070488  0.61279954     0.09100
H4313       H  0.85456025  0.21446564  0.62625783     0.09100
H4314       H  0.88788420  0.34536502  0.58970987     0.09100
H4315       H  0.91001614  0.32713256  0.56689602     0.09100
H4316       H  0.91900154  0.33084760  0.60208241     0.05800
C4317       C  0.97377809  0.23973144  0.60158378    -0.20000
C4318       C  0.96090899  0.23680802  0.57646359    -0.06500
C4319       C  0.93550067  0.22462389  0.57451114     0.14300
C4320       C  0.92250025  0.21758711  0.59837743    -0.20000
C4321       C  0.93400900  0.22370219  0.62380734    -0.06500
C4322       C  0.96036021  0.23414112  0.62549632     0.14300
C4323       C  0.97408182  0.24068496  0.65203929    -0.23400
H4324       H  0.99443015  0.24661797  0.60245910     0.15600
H4325       H  0.90241619  0.20911518  0.59728681     0.15600
C4326       C  0.92215008  0.21944595  0.54750528    -0.23300
H4327       H  0.99357884  0.25116965  0.64904866     0.05900
H4328       H  0.97867676  0.22163333  0.66303143     0.09100
H4329       H  0.96108819  0.25424958  0.66444270     0.09100
H4330       H  0.93500126  0.20557586  0.53528175     0.09100
H4331       H  0.91931948  0.23894179  0.53656694     0.09100
H4332       H  0.90207103  0.20991606  0.54976354     0.05800
C4333       C  0.86182513  0.19408219  0.32220553    -0.20000
C4334       C  0.87555175  0.21759900  0.33002736    -0.06500
C4335       C  0.87703545  0.23952545  0.31166267     0.14300
C4336       C  0.86199274  0.23877030  0.28752717    -0.20000
C4337       C  0.84528440  0.21671629  0.28142203    -0.06500
C4338       C  0.84615403  0.19352459  0.29832400     0.14300
C4339       C  0.83049773  0.16826571  0.29143429    -0.23400
H4340       H  0.86170785  0.17697954  0.33590750     0.15600
H4341       H  0.86229058  0.25611763  0.27408581     0.15600
C4342       C  0.89431083  0.26398254  0.31724833    -0.23300
H4343       H  0.83443814  0.15180207  0.30629212     0.05900
H4344       H  0.83645530  0.16059959  0.27119441     0.09100
H4345       H  0.80851594  0.17270562  0.29149776     0.09100
H4346       H  0.90513731  0.26264258  0.33694967     0.09100
H4347       H  0.88167094  0.28270997  0.31716848     0.09100
H4348       H  0.90963688  0.26569075  0.30114035     0.05800
C4349       C  0.84050661  0.27254050  0.35614847    -0.20000
C4350       C  0.84100480  0.24622754  0.36651375    -0.06500
C4351       C  0.82014050  0.22780764  0.35996404     0.14300
C4352       C  0.79936321  0.23620461  0.34272033    -0.20000
C4353       C  0.79916415  0.26231460  0.33186575    -0.06500
C4354       C  0.82015366  0.28062814  0.33820789     0.14300
C4355       C  0.82122227  0.30856350  0.32577354    -0.23400
H4356       H  0.85712399  0.28609144  0.36062281     0.15600
H4357       H  0.78253696  0.22273579  0.33878706     0.15600
C4358       C  0.81920012  0.19914958  0.37061783    -0.23300
H4359       H  0.83984015  0.31949863  0.33189864     0.05900
H4360       H  0.80379054  0.32120869  0.33216790     0.09100
H4361       H  0.82101882  0.30666467  0.30338121     0.09100
H4362       H  0.83781883  0.19311699  0.38172278     0.09100
H4363       H  0.81640974  0.18459946  0.35361100     0.09100
H4364       H  0.80176025  0.19720262  0.38435307     0.05800
C4365       C  0.93336973  0.19899057  0.32935123    -0.20000
C4366       C  0.92931889  0.19755791  0.35765095    -0.06500
C4367       C  0.94533944  0.17739604  0.37118604     0.14300
C4368       C  0.96602503  0.16294119  0.35705959    -0.20000
C4369       C  0.96864047  0.16370131  0.32847943    -0.06500
C4370       C  0.94869001  0.17949376  0.31485392     0.14300
C4371       C  0.93802800  0.17256649  0.28705176    -0.23400
H4372       H  0.92283516  0.21385615  0.31741118     0.15600
H4373       H  0.97892644  0.14906270  0.36835550     0.15600
C4374       C  0.93967047  0.16819903  0.39948599    -0.23300
H4375       H  0.91598804  0.16885187  0.28829345     0.05900
H4376       H  0.94670629  0.15346934  0.27890489     0.09100
H4377       H  0.94079146  0.18981634  0.27302365     0.09100
H4378       H  0.91946844  0.17480610  0.40627542     0.09100
H4379       H  0.95560188  0.17563227  0.41355833     0.09100
H4380       H  0.93952256  0.14563034  0.40014860     0.05800
C4381       C  0.88456808  0.28454665  0.43111786    -0.20000
C4382       C  0.86962425  0.26156492  0.42267600    -0.06500
C4383       C  0.84429371  0.25855035  0.43574917     0.14300
C4384       C  0.83420530  0.27859029  0.45428578    -0.20000
C4385       C  0.84771274  0.30307430  0.46093005    -0.06500
C4386       C  0.87445469  0.30461149  0.44996796     0.14300
C4387       C  0.89323802  0.32702746  0.45852725    -0.23400
H4388       H  0.90440198  0.28714076  0.42255852     0.15600
H4389       H  0.81630545  0.27352937  0.46507917     0.15600
C4390       C  0.82773293  0.23334573  0.43211605    -0.23300
H4391       H  0.91378965  0.32390490  0.45026223     0.05900
H4392       H  0.89515715  0.32760735  0.48090722     0.09100
H4393       H  0.88579878  0.34689182  0.45099042     0.09100
H4394       H  0.83846712  0.21748408  0.42053947     0.09100
H4395       H  0.80841999  0.23851498  0.42169466     0.09100
H4396       H  0.82330415  0.22450161  0.45218968     0.05800
C4397       C  0.95091179  0.23774399  0.41106753    -0.20000
C4398       C  0.92577050  0.22719716  0.41761672    -0.06500
C4399       C  0.92048777  0.21815149  0.44412280     0.14300
C4400       C  0.93991632  0.22225104  0.46416264    -0.20000
C4401       C  0.96432054  0.23443942  0.45792165    -0.06500
C4402       C  0.97041012  0.24154117  0.43115521     0.14300
C4403       C  0.99691797  0.25410581  0.42411285    -0.23400
H4404       H  0.95477120  0.24417031  0.39052617     0.15600
H4405       H  0.93576379  0.21653246  0.48485197     0.15600
C4406       C  0.89503840  0.20366299  0.45182365    -0.23300
H4407       H  0.99855154  0.25795766  0.40206928     0.05900
H4408       H  0.01380752  0.24045782  0.43035785     0.09100
H4409       H  0.99858811  0.27374726  0.43489678     0.09100
H4410       H  0.88180687  0.19916408  0.43422212     0.09100
H4411       H  0.88360464  0.21617248  0.46662190     0.09100
H4412       H  0.90039948  0.18387003  0.46125826     0.05800
C4413       C  0.30071946  0.30512101  0.50520309    -0.20000
C4414       C  0.30396838  0.33342448  0.50268166    -0.06500
C4415       C  0.33028554  0.34349110  0.49862414     0.14300
C4416       C  0.35231344  0.32510461  0.49713012    -0.20000
C4417       C  0.34889993  0.29689124  0.49986336    -0.06500
C4418       C  0.32266745  0.28687901  0.50374269     0.14300
C4419       C  0.31711040  0.25693233  0.50576415    -0.23400
H4420       H  0.28065879  0.29709312  0.50800388     0.15600
H4421       H  0.37229567  0.33281093  0.49356198     0.15600
C4422       C  0.33516583  0.37335981  0.49474995    -0.23300
H4423       H  0.30308942  0.25081752  0.48919789     0.05900
H4424       H  0.30762053  0.25261301  0.52550478     0.09100
H4425       H  0.33558534  0.24419920  0.50415671     0.09100
H4426       H  0.33056496  0.38467004  0.51361056     0.09100
H4427       H  0.32229329  0.38116355  0.47794497     0.09100
H4428       H  0.35654704  0.37741759  0.48975120     0.05800
C4429       C  0.25665980  0.45080206  0.39118794    -0.20000
C4430       C  0.28326237  0.45127620  0.40102214    -0.06500
C4431       C  0.29040821  0.43790511  0.42515562     0.14300
C4432       C  0.26996875  0.42717791  0.44068982    -0.20000
C4433       C  0.24288149  0.43017213  0.43268316    -0.06500
C4434       C  0.23612242  0.44040516  0.40706721     0.14300
C4435       C  0.20727447  0.44164938  0.39740261    -0.23400
H4436       H  0.25164484  0.46019505  0.37203734     0.15600
H4437       H  0.27492681  0.41784990  0.45997114     0.15600
C4438       C  0.31901811  0.43589006  0.43570306    -0.23300
H4439       H  0.20549567  0.45089900  0.37700272     0.05900
H4440       H  0.19507555  0.45404126  0.41166977     0.09100
H4441       H  0.19895557  0.42079785  0.39625078     0.09100
H4442       H  0.33383285  0.44519793  0.42200600     0.09100
H4443       H  0.32471694  0.41415380  0.43813152     0.09100
H4444       H  0.32055093  0.44621380  0.45568128     0.05800
C4445       C  0.26527538  0.43822520  0.54003490    -0.20000
C4446       C  0.23785370  0.42996836  0.53967057    -0.06500
C4447       C  0.22021908  0.44818559  0.55435623     0.14300
C4448       C  0.23060279  0.46921151  0.57191717    -0.20000
C4449       C  0.25821250  0.47610699  0.57347755    -0.06500
C4450       C  0.27516058  0.46099702  0.55557368     0.14300
C4451       C  0.30361790  0.47008299  0.55129739    -0.23400
H4452       H  0.27915158  0.42781459  0.52678365     0.15600
H4453       H  0.21664156  0.48074853  0.58430848     0.15600
C4454       C  0.18995247  0.44739065  0.55140108    -0.23300
H4455       H  0.31436169  0.45696599  0.53648545     0.05900
H4456       H  0.31498513  0.46954383  0.57047718     0.09100
H4457       H  0.30342600  0.49123151  0.54355726     0.09100
H4458       H  0.18083359  0.44167613  0.57095655     0.09100
H4459       H  0.18282147  0.43338497  0.53540552     0.09100
H4460       H  0.18234362  0.46789261  0.54566432     0.05800
C4461       C  0.16499749  0.19601367  0.31796487    -0.20000
C4462       C  0.17221979  0.21263165  0.29613226    -0.06500
C4463       C  0.17550065  0.24081714  0.30122332     0.14300
C4464       C  0.16966495  0.25164087  0.32711519    -0.20000
C4465       C  0.16192955  0.23507375  0.34882944    -0.06500
C4466       C  0.16086716  0.20661053  0.34422622     0.14300
C4467       C  0.15640440  0.18664159  0.36662341    -0.23400
H4468       H  0.16301410  0.17431714  0.31463513     0.15600
H4469       H  0.17049084  0.27338918  0.33028106     0.15600
C4470       C  0.18418157  0.25983006  0.27924428    -0.23300
H4471       H  0.13787334  0.17483211  0.36233690     0.05900
H4472       H  0.15466799  0.19660927  0.38667182     0.09100
H4473       H  0.17375371  0.17224466  0.36773570     0.09100
H4474       H  0.16971197  0.25892829  0.26197257     0.09100
H4475       H  0.20465667  0.25400715  0.27225596     0.09100
H4476       H  0.18507436  0.28121618  0.28650439     0.05800
C4477       C  0.20247537  0.29443804  0.37057265    -0.20000
C4478       C  0.19821676  0.26932963  0.38273724    -0.06500
C4479       C  0.21662477  0.24754454  0.37950319     0.14300
C4480       C  0.23842206  0.25102731  0.36265269    -0.20000
C4481       C  0.24173768  0.27555361  0.34924445    -0.06500
C4482       C  0.22407479  0.29768566  0.35330224     0.14300
C4483       C  0.22786765  0.32439855  0.33907113    -0.23400
H4484       H  0.18768175  0.31066802  0.37278760     0.15600
H4485       H  0.25321740  0.23478906  0.36040720     0.15600
C4486       C  0.21354600  0.22033187  0.39293161    -0.23300
H4487       H  0.21171508  0.33929868  0.34419892     0.05900
H4488       H  0.22740820  0.32103101  0.31683737     0.09100
H4489       H  0.24754032  0.33336219  0.34501252     0.09100
H4490       H  0.19506477  0.21906688  0.40521489     0.09100
H4491       H  0.23119844  0.21643087  0.40642115     0.09100
H4492       H  0.21276614  0.20410253  0.37727627     0.05800
C4493       C  0.15641016  0.32280030  0.43662984    -0.20000
C4494       C  0.16884505  0.29706814  0.43330194    -0.06500
C4495       C  0.19164801  0.29209942  0.45052282     0.14300
C4496       C  0.20235249  0.31295944  0.46782991    -0.20000
C4497       C  0.19184067  0.33989869  0.46904110    -0.06500
C4498       C  0.16684078  0.34356265  0.45434875     0.14300
C4499       C  0.14975766  0.36878776  0.45798190    -0.23400
H4500       H  0.13821685  0.32691970  0.42496908     0.15600
H4501       H  0.21837504  0.30727174  0.48164818     0.15600
C4502       C  0.20446264  0.26436638  0.45259084    -0.23300
H4503       H  0.12936769  0.36634039  0.44879955     0.05900
H4504       H  0.15895159  0.38640076  0.44794125     0.09100
H4505       H  0.14697573  0.37310359  0.47983903     0.09100
H4506       H  0.19347566  0.24896010  0.44064645     0.09100
H4507       H  0.20436147  0.25759539  0.47398843     0.09100
H4508       H  0.22563181  0.26515151  0.44554349     0.05800
C4509       C  0.09959026  0.20758175  0.39135522    -0.20000
C4510       C  0.10732812  0.23035555  0.37620064    -0.06500
C4511       C  0.09717674  0.23242362  0.34924443     0.14300
C4512       C  0.08196222  0.21101465  0.33761685    -0.20000
C4513       C  0.07597417  0.18741190  0.35217427    -0.06500
C4514       C  0.08403941  0.18633565  0.37971034     0.14300
C4515       C  0.07644276  0.16236025  0.39663818    -0.23400
H4516       H  0.10704971  0.20556742  0.41191221     0.15600
H4517       H  0.07438916  0.21289622  0.31705829     0.15600
C4518       C  0.10166815  0.25726908  0.33226923    -0.23300
H4519       H  0.08437165  0.16420636  0.41765913     0.05900
H4520       H  0.08480298  0.14343320  0.38755215     0.09100
H4521       H  0.05412923  0.16085082  0.39750007     0.09100
H4522       H  0.11316555  0.27320678  0.34321995     0.09100
H4523       H  0.08186102  0.26621786  0.32626999     0.09100
H4524       H  0.11277641  0.25149580  0.31369297     0.05800
C4525       C  0.09069448  0.28807931  0.42664491    -0.20000
C4526       C  0.11107943  0.26838147  0.42973745    -0.06500
C4527       C  0.11313084  0.25296058  0.45351602     0.14300
C4528       C  0.09365279  0.25650560  0.47310483    -0.20000
C4529       C  0.07141324  0.27400732  0.46903038    -0.06500
C4530       C  0.07080796  0.29142952  0.44641440     0.14300
C4531       C  0.04981870  0.31347097  0.44308307    -0.23400
H4532       H  0.09037607  0.30073567  0.40875212     0.15600
H4533       H  0.09501496  0.24402371  0.49111723     0.15600
C4534       C  0.13486649  0.23180123  0.45857444    -0.23300
H4535       H  0.05266926  0.32507126  0.42412142     0.05900
H4536       H  0.05125282  0.32793131  0.46033677     0.09100
H4537       H  0.02939696  0.30476220  0.44243661     0.09100
H4538       H  0.14708408  0.23774944  0.47656979     0.09100
H4539       H  0.14862687  0.22886460  0.44129600     0.09100
H4540       H  0.12536582  0.21187057  0.46252310     0.05800
C4541       C  0.14808722  0.24253462  0.70848381    -0.20000
C4542       C  0.14244164  0.27053137  0.71007941    -0.06500
C4543       C  0.15083809  0.28530719  0.73315936     0.14300
C4544       C  0.16685103  0.27232547  0.75273242    -0.20000
C4545       C  0.17341590  0.24470485  0.75015610    -0.06500
C4546       C  0.16284855  0.22926130  0.72864518     0.14300
C4547       C  0.16853611  0.19918744  0.72606763    -0.23400
H4548       H  0.14314882  0.23137323  0.69039586     0.15600
H4549       H  0.17468844  0.28388968  0.76977502     0.15600
C4550       C  0.14385942  0.31488227  0.73711891    -0.23300
H4551       H  0.15897803  0.19040002  0.70760951     0.05900
H4552       H  0.16036084  0.18843749  0.74385066     0.09100
H4553       H  0.19062689  0.19545564  0.72500365     0.09100
H4554       H  0.13023734  0.32281343  0.72100594     0.09100
H4555       H  0.16260595  0.32706748  0.73742062     0.09100
H4556       H  0.13338693  0.31761280  0.75670455     0.05800
C4557       C  0.19035182  0.27864484  0.67092874    -0.20000
C4558       C  0.17649369  0.30337042  0.67469239    -0.06500
C4559       C  0.19061477  0.32804903  0.67585346     0.14300
C4560       C  0.21862427  0.32725512  0.67337786    -0.20000
C4561       C  0.23221478  0.30242953  0.66974577    -0.06500
C4562       C  0.21818471  0.27786977  0.66878883     0.14300
C4563       C  0.23260399  0.25092604  0.66569797    -0.23400
H4564       H  0.17923695  0.25998133  0.66820170     0.15600
H4565       H  0.22999436  0.34590129  0.67519355     0.15600
C4566       C  0.17678271  0.35518606  0.67952075    -0.23300
H4567       H  0.21828730  0.23368313  0.66514731     0.05900
H4568       H  0.24670350  0.24771758  0.68301748     0.09100
H4569       H  0.24416625  0.25070834  0.64658351     0.09100
H4570       H  0.15464916  0.35338145  0.68187725     0.09100
H4571       H  0.18063580  0.36815192  0.66167211     0.09100
H4572       H  0.18492903  0.36536048  0.69792685     0.05800
C4573       C  0.08019592  0.25705451  0.70204495    -0.20000
C4574       C  0.09399398  0.25450867  0.67755674    -0.06500
C4575       C  0.09784762  0.22840771  0.66582456     0.14300
C4576       C  0.08784475  0.20575533  0.67894884    -0.20000
C4577       C  0.07461915  0.20841840  0.70344610    -0.06500
C4578       C  0.07092546  0.23412268  0.71544635     0.14300
C4579       C  0.05849024  0.23704480  0.74291784    -0.23400
H4580       H  0.07848961  0.27686079  0.71165258     0.15600
H4581       H  0.08995479  0.18569741  0.66997840     0.15600
C4582       C  0.11435596  0.22353996  0.64098883    -0.23300
H4583       H  0.05804351  0.25855151  0.74986151     0.05900
H4584       H  0.07033716  0.22496996  0.75787009     0.09100
H4585       H  0.03756442  0.22966979  0.74232625     0.09100
H4586       H  0.13408435  0.23381526  0.64288826     0.09100
H4587       H  0.10268990  0.23057229  0.62321724     0.09100
H4588       H  0.11867104  0.20158207  0.63766136     0.05800
C4589       C  0.14314390  0.35807220  0.59053294    -0.20000
C4590       C  0.16781940  0.34897031  0.58031720    -0.06500
C4591       C  0.18201472  0.32760197  0.59272515     0.14300
C4592       C  0.17045201  0.31462705  0.61452532    -0.20000
C4593       C  0.14559362  0.32335585  0.62505236    -0.06500
C4594       C  0.13192203  0.34570375  0.61316455     0.14300
C4595       C  0.10593359  0.35729006  0.62400952    -0.23400
H4596       H  0.13281212  0.37500626  0.58088451     0.15600
H4597       H  0.18061996  0.29695969  0.62262161     0.15600
C4598       C  0.20937872  0.31860803  0.58290271    -0.23300
H4599       H  0.09921082  0.34706723  0.64264220     0.05900
H4600       H  0.10869461  0.37913025  0.62898805     0.09100
H4601       H  0.08976911  0.35539692  0.60840624     0.09100
H4602       H  0.22360717  0.33588003  0.58415013     0.09100
H4603       H  0.20788252  0.31145361  0.56162078     0.09100
H4604       H  0.21789166  0.30175515  0.59530811     0.05800
C4605       C  0.06762706  0.29658246  0.62475349    -0.20000
C4606       C  0.09446146  0.28774106  0.62293487    -0.06500
C4607       C  0.10418080  0.27648081  0.59840761     0.14300
C4608       C  0.08614604  0.27257217  0.57709450    -0.20000
C4609       C  0.05911755  0.28028007  0.57933498    -0.06500
C4610       C  0.04990179  0.29382020  0.60275931     0.14300
C4611       C  0.02175689  0.30546875  0.60467152    -0.23400
H4612       H  0.06073327  0.30613924  0.64328333     0.15600
H4613       H  0.09312069  0.26279239  0.55867889     0.15600
C4614       C  0.13267350  0.26643262  0.59422436    -0.23300
H4615       H  0.01787931  0.31445481  0.62493599     0.05900
H4616       H  0.00657762  0.28958618  0.60087834     0.09100
H4617       H  0.01899173  0.32176268  0.58942415     0.09100
H4618       H  0.14502667  0.26697707  0.61290120     0.09100
H4619       H  0.13247730  0.24495439  0.58719811     0.09100
H4620       H  0.14242814  0.27883497  0.57845018     0.05800
C4621       C  0.19783383  0.99902282  0.22403337    -0.20000
C4622       C  0.20092533  0.98543298  0.19893715    -0.06500
C4623       C  0.17694979  0.97490761  0.18653600     0.14300
C4624       C  0.15192120  0.97733932  0.19996423    -0.20000
C4625       C  0.14938913  0.99043356  0.22514076    -0.06500
C4626       C  0.17281885  0.00182073  0.23702450     0.14300
C4627       C  0.17282917  0.01546530  0.26440227    -0.23400
H4628       H  0.21532566  0.00686962  0.23457742     0.15600
H4629       H  0.13396787  0.96863361  0.19086676     0.15600
C4630       C  0.17663547  0.96135250  0.15916896    -0.23300
H4631       H  0.18793894  0.00538987  0.27783136     0.05900
H4632       H  0.15318570  0.01435242  0.27470150     0.09100
H4633       H  0.17838463  0.03714701  0.26218507     0.09100
H4634       H  0.18513007  0.94050082  0.16076294     0.09100
H4635       H  0.18775185  0.97372084  0.14431832     0.09100
H4636       H  0.15574330  0.95906362  0.15116444     0.05800
C4637       C  0.26506025  0.03922700  0.07369296    -0.20000
C4638       C  0.29035462  0.04248757  0.08621866    -0.06500
C4639       C  0.30947305  0.05957417  0.07428778     0.14300
C4640       C  0.30260366  0.07360612  0.05039641    -0.20000
C4641       C  0.27687134  0.07111453  0.03846548    -0.06500
C4642       C  0.25795661  0.05350094  0.05021420     0.14300
C4643       C  0.22995502  0.04955468  0.03875686    -0.23400
H4644       H  0.25068050  0.02544636  0.08250218     0.15600
H4645       H  0.31685028  0.08764693  0.04179113     0.15600
C4646       C  0.33708722  0.06269681  0.08674274    -0.23300
H4647       H  0.21481486  0.05502218  0.05430158     0.05900
H4648       H  0.22729963  0.02788767  0.03300758     0.09100
H4649       H  0.22579775  0.06211114  0.02062366     0.09100
H4650       H  0.34733342  0.04255901  0.08786227     0.09100
H4651       H  0.33531101  0.07131290  0.10745006     0.09100
H4652       H  0.34984173  0.07649357  0.07472333     0.05800
C4653       C  0.25536349  0.94686061  0.10727475    -0.20000
C4654       C  0.28092332  0.94215075  0.11958107    -0.06500
C4655       C  0.30126216  0.93030097  0.10254865     0.14300
C4656       C  0.29443105  0.92093062  0.07632370    -0.20000
C4657       C  0.26863492  0.92481794  0.06532039    -0.06500
C4658       C  0.24948165  0.93942138  0.08045313     0.14300
C4659       C  0.22331601  0.94887116  0.06753895    -0.23400
H4660       H  0.24056128  0.95937395  0.11726540     0.15600
H4661       H  0.30934962  0.91013912  0.06448606     0.15600
C4662       C  0.33075663  0.92886328  0.11032680    -0.23300
H4663       H  0.21086174  0.96108970  0.08173985     0.05900
H4664       H  0.21108507  0.93144468  0.06063237     0.09100
H4665       H  0.22781502  0.96176755  0.04980099     0.09100
H4666       H  0.33437228  0.91236008  0.12497430     0.09100
H4667       H  0.33794497  0.94863725  0.11830339     0.09100
H4668       H  0.34356641  0.92392703  0.09262813     0.05800
C4669       C  0.50880599  0.66055992  0.32428304    -0.20000
C4670       C  0.52621182  0.68162561  0.31711053    -0.06500
C4671       C  0.53849642  0.68048595  0.29147459     0.14300
C4672       C  0.53358707  0.65825789  0.27393465    -0.20000
C4673       C  0.51654235  0.63674319  0.28116122    -0.06500
C4674       C  0.50423003  0.63798428  0.30701622     0.14300
C4675       C  0.48731734  0.61531215  0.31778598    -0.23400
H4676       H  0.49891036  0.66162553  0.34370693     0.15600
H4677       H  0.54328808  0.65748786  0.25441407     0.15600
C4678       C  0.55667697  0.70301419  0.28263624    -0.23300
H4679       H  0.46629415  0.62268275  0.32065443     0.05900
H4680       H  0.49566376  0.60857232  0.33760546     0.09100
H4681       H  0.48706188  0.59725215  0.30438686     0.09100
H4682       H  0.57385766  0.70492991  0.29709752     0.09100
H4683       H  0.54523736  0.72251802  0.28205276     0.09100
H4684       H  0.56495013  0.69910024  0.26217480     0.05800
C4685       C  0.48119014  0.74317893  0.45886437    -0.20000
C4686       C  0.47806840  0.76833994  0.44578834    -0.06500
C4687       C  0.46000416  0.78786031  0.45639476     0.14300
C4688       C  0.44455688  0.78123196  0.47903133    -0.20000
C4689       C  0.44678634  0.75558869  0.49119168    -0.06500
C4690       C  0.46563481  0.73644130  0.48124089     0.14300
C4691       C  0.46919572  0.70843170  0.49303924    -0.23400
H4692       H  0.49536004  0.72829342  0.45096972     0.15600
H4693       H  0.42956690  0.79557863  0.48639258     0.15600
C4694       C  0.45718957  0.81566719  0.44410065    -0.23300
H4695       H  0.46616431  0.69287742  0.47696695     0.05900
H4696       H  0.45476630  0.70425574  0.50939735     0.09100
H4697       H  0.48999611  0.70618026  0.50134756     0.09100
H4698       H  0.44892812  0.81408633  0.42323806     0.09100
H4699       H  0.47718773  0.82563295  0.44367836     0.09100
H4700       H  0.44325460  0.82885910  0.45588019     0.05800
C4701       C  0.57260737  0.72186176  0.41697439    -0.20000
C4702       C  0.57589202  0.74859237  0.40696173    -0.06500
C4703       C  0.59037235  0.76646671  0.42500840     0.14300
C4704       C  0.60190592  0.75694357  0.45007004    -0.20000
C4705       C  0.59924856  0.72996159  0.45918946    -0.06500
C4706       C  0.58385888  0.71251714  0.44197839     0.14300
C4707       C  0.57822944  0.68355141  0.44959442    -0.23400
H4708       H  0.55976042  0.70801409  0.40593216     0.15600
H4709       H  0.61404908  0.77060719  0.46227816     0.15600
C4710       C  0.59367512  0.79608628  0.41849577    -0.23300
H4711       H  0.55610627  0.68073839  0.45125368     0.05900
H4712       H  0.58759587  0.67769325  0.46916438     0.09100
H4713       H  0.58599165  0.66966591  0.43365884     0.09100
H4714       H  0.60369363  0.80731147  0.43530278     0.09100
H4715       H  0.57372141  0.80588451  0.41490351     0.09100
H4716       H  0.60659334  0.79823425  0.40055537     0.05800
C4717       C  0.77726194  0.00771537  0.22424513    -0.20000
C4718       C  0.78345949  0.01668198  0.19801545    -0.06500
C4719       C  0.81021918  0.02460377  0.19254761     0.14300
C4720       C  0.82992184  0.02183921  0.21294509    -0.20000
C4721       C  0.82410787  0.00948969  0.23770179    -0.06500
C4722       C  0.79728599  0.00339939  0.24386483     0.14300
C4723       C  0.78925768  0.99219078  0.27086053    -0.23400
H4724       H  0.75668601  0.00285594  0.22916255     0.15600
H4725       H  0.85056127  0.02699157  0.20860630     0.15600
C4726       C  0.81890248  0.03384324  0.16500994    -0.23300
H4727       H  0.77418800  0.00601502  0.28029956     0.05900
H4728       H  0.80654096  0.99011306  0.28513880     0.09100
H4729       H  0.78010866  0.97185076  0.26794765     0.09100
H4730       H  0.81003356  0.05406819  0.16043581     0.09100
H4731       H  0.81278474  0.01872384  0.14942564     0.09100
H4732       H  0.84115518  0.03601440  0.16391714     0.05800
C4733       C  0.71026852  0.07365359  0.08834408    -0.20000
C4734       C  0.72730703  0.05336406  0.09977469    -0.06500
C4735       C  0.75393002  0.05129286  0.08851967     0.14300
C4736       C  0.76288513  0.07048602  0.06935729    -0.20000
C4737       C  0.74576991  0.09031756  0.05806265    -0.06500
C4738       C  0.71888306  0.09151487  0.06758847     0.14300
C4739       C  0.69843702  0.11101069  0.05576368    -0.23400
H4740       H  0.68946076  0.07493445  0.09464031     0.15600
H4741       H  0.78353492  0.06932101  0.06239489     0.15600
C4742       C  0.77369447  0.02851017  0.09451343    -0.23300
H4743       H  0.69062243  0.12460210  0.07191962     0.05900
H4744       H  0.70685850  0.12376681  0.03953148     0.09100
H4745       H  0.68135614  0.09938898  0.04693294     0.09100
H4746       H  0.76504858  0.01117694  0.10533120     0.09100
H4747       H  0.79113460  0.03658954  0.10618562     0.09100
H4748       H  0.78129336  0.01994729  0.07517361     0.05800
C4749       C  0.72544309  0.91603344  0.02592385    -0.20000
C4750       C  0.75220546  0.92135837  0.01885636    -0.06500
C4751       C  0.76598992  0.94319105  0.03112859     0.14300
C4752       C  0.75326694  0.95792331  0.05166176    -0.20000
C4753       C  0.72694063  0.95184885  0.05966252    -0.06500
C4754       C  0.71264600  0.93099103  0.04637147     0.14300
C4755       C  0.68393937  0.92475091  0.05352443    -0.23400
H4756       H  0.71494839  0.89932511  0.01620986     0.15600
H4757       H  0.76383297  0.97443455  0.06155852     0.15600
C4758       C  0.79350628  0.95185058  0.02204424    -0.23300
H4759       H  0.67546078  0.90853127  0.04032686     0.05900
H4760       H  0.67120048  0.94327591  0.05108477     0.09100
H4761       H  0.68293243  0.91764764  0.07473961     0.09100
H4762       H  0.79229198  0.95893924  0.00086189     0.09100
H4763       H  0.80816761  0.93491808  0.02345799     0.09100
H4764       H  0.80139709  0.96891869  0.03452058     0.05800
C4765       C  0.72970756  0.87260075  0.23303281    -0.20000
C4766       C  0.70753700  0.86354866  0.21769132    -0.06500
C4767       C  0.71106212  0.84214071  0.19896551     0.14300
C4768       C  0.73638741  0.82985652  0.19653769    -0.20000
C4769       C  0.75827989  0.83752355  0.21304525    -0.06500
C4770       C  0.75506769  0.85968237  0.23120152     0.14300
C4771       C  0.77752548  0.86874068  0.24983319    -0.23400
H4772       H  0.72661057  0.88849968  0.24798915     0.15600
H4773       H  0.73877005  0.81344424  0.18199353     0.15600
C4774       C  0.68842190  0.83078301  0.18198081    -0.23300
H4775       H  0.77080999  0.88514182  0.26382116     0.05900
H4776       H  0.79443801  0.87682850  0.23785684     0.09100
H4777       H  0.78469510  0.85132982  0.26227537     0.09100
H4778       H  0.66884077  0.84067745  0.18608171     0.09100
H4779       H  0.68634991  0.80875458  0.18615201     0.09100
H4780       H  0.69301725  0.83344703  0.16022735     0.05800
C4781       C  0.69552689  0.82694633  0.27519624    -0.20000
C4782       C  0.67544425  0.82886746  0.25505314    -0.06500
C4783       C  0.66128944  0.80524884  0.24717831     0.14300
C4784       C  0.66731891  0.78045560  0.25980485    -0.20000
C4785       C  0.68662514  0.77870861  0.28066853    -0.06500
C4786       C  0.70113874  0.80216035  0.28829648     0.14300
C4787       C  0.72267512  0.80099978  0.30997028    -0.23400
H4788       H  0.70605162  0.84519288  0.28136324     0.15600
H4789       H  0.65630778  0.76241761  0.25378027     0.15600
C4790       C  0.63939738  0.80556516  0.22587968    -0.23300
H4791       H  0.73260293  0.82097690  0.31281980     0.05900
H4792       H  0.73838235  0.78582124  0.30432119     0.09100
H4793       H  0.71365300  0.79515471  0.32952494     0.09100
H4794       H  0.63603128  0.82598619  0.21710543     0.09100
H4795       H  0.62021842  0.79870097  0.23487910     0.09100
H4796       H  0.64484358  0.79140297  0.20921955     0.05800
C4797       C  0.67677456  0.94060897  0.15987741    -0.20000
C4798       C  0.68757394  0.96497401  0.17063686    -0.06500
C4799       C  0.68854231  0.96656684  0.19976588     0.14300
C4800       C  0.68216748  0.94374208  0.21583589    -0.20000
C4801       C  0.67363408  0.91905833  0.20464427    -0.06500
C4802       C  0.66967824  0.91814238  0.17620053     0.14300
C4803       C  0.65643373  0.89437910  0.16238034    -0.23400
H4804       H  0.67221742  0.93925510  0.13855320     0.15600
H4805       H  0.68371699  0.94536163  0.23769053     0.15600
C4806       C  0.69563452  0.99173403  0.21566899    -0.23300
H4807       H  0.63919062  0.90171634  0.14979049     0.05900
H4808       H  0.64809888  0.87977830  0.17693634     0.09100
H4809       H  0.67120758  0.88383740  0.14915482     0.09100
H4810       H  0.67813465  0.99809126  0.22812131     0.09100
H4811       H  0.70113598  0.00902323  0.20301865     0.09100
H4812       H  0.71280775  0.98723536  0.22953399     0.05800
C4813       C  0.63651364  0.85200769  0.30046281    -0.20000
C4814       C  0.62645406  0.85774615  0.27435473    -0.06500
C4815       C  0.60080949  0.84756912  0.26706809     0.14300
C4816       C  0.58662688  0.83138915  0.28550375    -0.20000
C4817       C  0.59664275  0.82529550  0.31176249    -0.06500
C4818       C  0.62201583  0.83645633  0.31930164     0.14300
C4819       C  0.63410087  0.83279004  0.34711722    -0.23400
H4820       H  0.65634270  0.85944590  0.30601239     0.15600
H4821       H  0.56754902  0.82306321  0.27882160     0.15600
C4822       C  0.58794498  0.85258946  0.23975608    -0.23300
H4823       H  0.65191000  0.84600634  0.35035493     0.05900
H4824       H  0.64131402  0.81157976  0.34968267     0.09100
H4825       H  0.61907969  0.83824261  0.36278304     0.09100
H4826       H  0.60101791  0.86405088  0.22596812     0.09100
H4827       H  0.56887198  0.86428267  0.24237838     0.09100
H4828       H  0.58318597  0.83290148  0.22981676     0.05800
C4829       C  0.60836260  0.92151905  0.22048282    -0.20000
C4830       C  0.62385595  0.91574437  0.24349682    -0.06500
C4831       C  0.61952393  0.93048708  0.26757840     0.14300
C4832       C  0.59766592  0.94870624  0.26886201    -0.20000
C4833       C  0.58063399  0.95309440  0.24632909    -0.06500
C4834       C  0.58696971  0.94016305  0.22133106     0.14300
C4835       C  0.57119421  0.94490746  0.19546197    -0.23400
H4836       H  0.61261429  0.91070296  0.20182960     0.15600
H4837       H  0.59364299  0.95922972  0.28772611     0.15600
C4838       C  0.63834301  0.92776627  0.29154176    -0.23300
H4839       H  0.57972239  0.93329044  0.17816785     0.05900
H4840       H  0.57181655  0.96676236  0.19002344     0.09100
H4841       H  0.55002109  0.93823638  0.19783910     0.09100
H4842       H  0.65928735  0.93225154  0.28530959     0.09100
H4843       H  0.63759875  0.90697005  0.29977160     0.09100
H4844       H  0.63285744  0.94207749  0.30808189     0.05800
C4845       C  0.35494948  0.81198857  0.22265230    -0.20000
C4846       C  0.36085701  0.82213395  0.24839144    -0.06500
C4847       C  0.33920933  0.82847729  0.26593246     0.14300
C4848       C  0.31225346  0.82548045  0.25669320    -0.20000
C4849       C  0.30621193  0.81611581  0.23034078    -0.06500
C4850       C  0.32831726  0.80799518  0.21365139     0.14300
C4851       C  0.32464185  0.79442610  0.18638320    -0.23400
H4852       H  0.37155527  0.80727241  0.20926365     0.15600
H4853       H  0.29590073  0.83120465  0.27000334     0.15600
C4854       C  0.34375496  0.83912944  0.29418606    -0.23300
H4855       H  0.34406276  0.78674618  0.17815938     0.05900
H4856       H  0.31633676  0.80908153  0.17141707     0.09100
H4857       H  0.31114248  0.77667604  0.18825214     0.09100
H4858       H  0.33364792  0.85923584  0.29642785     0.09100
H4859       H  0.36542213  0.84167002  0.29922870     0.09100
H4860       H  0.33498349  0.82483298  0.30892910     0.05800
C4861       C  0.39265848  0.79177786  0.30996765    -0.20000
C4862       C  0.39888633  0.78819321  0.28272331    -0.06500
C4863       C  0.38809014  0.76689765  0.26759190     0.14300
C4864       C  0.36676416  0.75310704  0.27818075    -0.20000
C4865       C  0.35803159  0.75824181  0.30474571    -0.06500
C4866       C  0.37217950  0.77681338  0.32151183     0.14300
C4867       C  0.36516608  0.78229414  0.35068677    -0.23400
H4868       H  0.40165657  0.80845314  0.32114350     0.15600
H4869       H  0.35667474  0.73871485  0.26497832     0.15600
C4870       C  0.39710572  0.76015220  0.23932264    -0.23300
H4871       H  0.37752966  0.79889330  0.35955369     0.05900
H4872       H  0.36915351  0.76388118  0.36303259     0.09100
H4873       H  0.34363373  0.78847387  0.35221744     0.09100
H4874       H  0.40567426  0.73922091  0.23896035     0.09100
H4875       H  0.41264478  0.77430180  0.23206397     0.09100
H4876       H  0.37967101  0.76094898  0.22508069     0.05800
C4877       C  0.37646397  0.90170536  0.19458599    -0.20000
C4878       C  0.35715517  0.91649275  0.20948049    -0.06500
C4879       C  0.35466750  0.91090104  0.23740177     0.14300
C4880       C  0.37085350  0.89037836  0.24940214    -0.20000
C4881       C  0.38965035  0.87513005  0.23436824    -0.06500
C4882       C  0.39275276  0.88127450  0.20670416     0.14300
C4883       C  0.41267238  0.86564231  0.18979327    -0.23400
H4884       H  0.37845220  0.90592767  0.17321594     0.15600
H4885       H  0.36843491  0.88578520  0.27061683     0.15600
C4886       C  0.33394959  0.92547777  0.25430823    -0.23300
H4887       H  0.41245159  0.87262653  0.16846523     0.05900
H4888       H  0.40772476  0.84367731  0.18996356     0.09100
H4889       H  0.43332188  0.86850194  0.19813915     0.09100
H4890       H  0.31361312  0.92311262  0.24499923     0.09100
H4891       H  0.33885342  0.94736521  0.25593329     0.09100
H4892       H  0.33331971  0.91725171  0.27517208     0.05800
C4893       C  0.45807881  0.82642076  0.31603796    -0.20000
C4894       C  0.45372594  0.81354674  0.29087642    -0.06500
C4895       C  0.47062216  0.79108807  0.28459137     0.14300
C4896       C  0.49001005  0.78161038  0.30363353    -0.20000
C4897       C  0.49256067  0.79226972  0.33020997    -0.06500
C4898       C  0.47778710  0.81696142  0.33508095     0.14300
C4899       C  0.48337694  0.83537674  0.35888429    -0.23400
H4900       H  0.44631137  0.84449216  0.32072113     0.15600
H4901       H  0.50425763  0.76648882  0.29670336     0.15600
C4902       C  0.46962459  0.77713027  0.25741687    -0.23300
H4903       H  0.48654439  0.85639919  0.35153711     0.05900
H4904       H  0.50192068  0.82990984  0.37023362     0.09100
H4905       H  0.46586971  0.83549584  0.37270121     0.09100
H4906       H  0.45564074  0.78728831  0.24302378     0.09100
H4907       H  0.46326564  0.75572212  0.25996713     0.09100
H4908       H  0.48997729  0.77729362  0.24823613     0.05800
C4909       C  0.48571789  0.89436796  0.24367652    -0.20000
C4910       C  0.47477013  0.91768953  0.25555290    -0.06500
C4911       C  0.45067857  0.91707541  0.27035063     0.14300
C4912       C  0.43802867  0.89258221  0.27335541    -0.20000
C4913       C  0.44782832  0.86960823  0.26013697    -0.06500
C4914       C  0.47215579  0.86986093  0.24571001     0.14300
C4915       C  0.48347047  0.84478720  0.23229502    -0.23400
H4916       H  0.50466648  0.89541471  0.23297019     0.15600
H4917       H  0.41929652  0.89165241  0.28446907     0.15600
C4918       C  0.43728327  0.94232631  0.28151168    -0.23300
H4919       H  0.50193494  0.84931791  0.22066603     0.05900
H4920       H  0.46834643  0.83591048  0.21817471     0.09100
H4921       H  0.48909529  0.82974564  0.24797111     0.09100
H4922       H  0.43299391  0.95654829  0.26465467     0.09100
H4923       H  0.45042062  0.95210942  0.29692766     0.09100
H4924       H  0.41776563  0.93782491  0.29131017     0.05800
C4925       C  0.51938746  0.32764266  0.33672800    -0.20000
C4926       C  0.52862020  0.32516322  0.31007586    -0.06500
C4927       C  0.53521779  0.29913614  0.29998269     0.14300
C4928       C  0.53053592  0.27627561  0.31584970    -0.20000
C4929       C  0.52023225  0.27839908  0.34223487    -0.06500
C4930       C  0.51608625  0.30475735  0.35332750     0.14300
C4931       C  0.50895577  0.30979111  0.38248366    -0.23400
H4932       H  0.51405876  0.34749472  0.34450599     0.15600
H4933       H  0.53407546  0.25648958  0.30686763     0.15600
C4934       C  0.54585348  0.29464715  0.27184812    -0.23300
H4935       H  0.52300298  0.32497019  0.39134075     0.05900
H4936       H  0.51100441  0.29141120  0.39516333     0.09100
H4937       H  0.48803971  0.31795055  0.38374018     0.09100
H4938       H  0.54886741  0.31378959  0.26064981     0.09100
H4939       H  0.53154276  0.28188235  0.26006012     0.09100
H4940       H  0.56564603  0.28394300  0.27308956     0.05800
C4941       C  0.45740519  0.24059980  0.42698986    -0.20000
C4942       C  0.45645460  0.21268834  0.42011091    -0.06500
C4943       C  0.43988001  0.19637882  0.43716258     0.14300
C4944       C  0.42292090  0.20877044  0.45686686    -0.20000
C4945       C  0.42295272  0.23692437  0.46187452    -0.06500
C4946       C  0.44101601  0.25281142  0.44683952     0.14300
C4947       C  0.44469043  0.28281525  0.45176899    -0.23400
H4948       H  0.47264248  0.25327609  0.41868384     0.15600
H4949       H  0.40990084  0.19613570  0.46889493     0.15600
C4950       C  0.44054222  0.16575204  0.43706822    -0.23300
H4951       H  0.46598245  0.28674988  0.45767662     0.05900
H4952       H  0.43177259  0.29102382  0.46798754     0.09100
H4953       H  0.43994028  0.29411413  0.43289212     0.09100
H4954       H  0.44561383  0.15842321  0.45773774     0.09100
H4955       H  0.45576234  0.15677375  0.42351343     0.09100
H4956       H  0.42035045  0.15795511  0.43126903     0.05800
C4957       C  0.58093320  0.18848351  0.46097402    -0.20000
C4958       C  0.55789512  0.20297003  0.45267941    -0.06500
C4959       C  0.55560413  0.23118014  0.45859947     0.14300
C4960       C  0.57561538  0.24350945  0.47438672    -0.20000
C4961       C  0.59840284  0.22886752  0.48271826    -0.06500
C4962       C  0.60168369  0.20135699  0.47527206     0.14300
C4963       C  0.62756453  0.18603046  0.48110064    -0.23400
H4964       H  0.58301867  0.16727891  0.45525433     0.15600
H4965       H  0.57395272  0.26490435  0.47941513     0.15600
C4966       C  0.53360903  0.24901303  0.44666317    -0.23300
H4967       H  0.62671946  0.16474849  0.47355516     0.05900
H4968       H  0.63167958  0.18547042  0.50311439     0.09100
H4969       H  0.64459375  0.19621198  0.47101029     0.09100
H4970       H  0.51403869  0.24508442  0.45640543     0.09100
H4971       H  0.53200488  0.24554250  0.42449087     0.09100
H4972       H  0.53788257  0.27092796  0.44987386     0.05800
C4973       C  0.28642836  0.10468703  0.26469995    -0.20000
C4974       C  0.31116367  0.11545109  0.27313208    -0.06500
C4975       C  0.31646956  0.14607413  0.27532169     0.14300
C4976       C  0.29790591  0.15820562  0.25465164    -0.20000
C4977       C  0.27341990  0.14722338  0.24602785    -0.06500
C4978       C  0.26691414  0.12058601  0.25245419     0.14300
C4979       C  0.24043404  0.10804703  0.24392851    -0.23400
H4980       H  0.28252195  0.08327019  0.26729433     0.15600
H4981       H  0.30131686  0.17765209  0.24513280     0.15600
C4982       C  0.35589072  0.17455583  0.31045235    -0.23300
H4983       H  0.23875486  0.08672010  0.25096510     0.05900
H4984       H  0.23861457  0.10789612  0.22153684     0.09100
H4985       H  0.22342298  0.11993186  0.25261359     0.09100
H4986       H  0.36725014  0.16388041  0.32734078     0.09100
H4987       H  0.34980378  0.19228517  0.32372462     0.09100
H4988       H  0.37433329  0.18459284  0.30193150     0.05800
C4989       C  0.32417545  0.14261684  0.32147571    -0.20000
C4990       C  0.35156478  0.12909300  0.30206295    -0.06500
C4991       C  0.36298299  0.14730352  0.27300531     0.14300
C4992       C  0.34800973  0.17885630  0.26447212    -0.20000
C4993       C  0.32176444  0.19280903  0.28468275    -0.06500
C4994       C  0.30906837  0.17403833  0.31250658     0.14300
C4995       C  0.28650592  0.18492874  0.32928416    -0.23400
H4996       H  0.31535447  0.13044379  0.33718857     0.15600
H4997       H  0.35590858  0.19034510  0.24776811     0.15600
C4998       C  0.38290390  0.13556436  0.25395326    -0.23300
H4999       H  0.28085271  0.16978240  0.34472464     0.05900
H5000       H  0.26872453  0.18924204  0.31611676     0.09100
H5001       H  0.29284842  0.20375292  0.33989262     0.09100
H5002       H  0.38479212  0.14889992  0.23606264     0.09100
H5003       H  0.37604316  0.11530713  0.24696957     0.09100
H5004       H  0.40279472  0.13458272  0.26418111     0.05800
C5005       C  0.39254729  0.09615837  0.34265801    -0.20000
C5006       C  0.39596498  0.08933660  0.31527497    -0.06500
C5007       C  0.41972097  0.09786230  0.30236925     0.14300
C5008       C  0.43675946  0.11635623  0.31556663    -0.20000
C5009       C  0.43203451  0.12529633  0.34215638    -0.06500
C5010       C  0.41048964  0.11345325  0.35648618     0.14300
C5011       C  0.40593919  0.11853559  0.38613563    -0.23400
H5012       H  0.37450719  0.08944325  0.35280194     0.15600
H5013       H  0.45385981  0.12418177  0.30473221     0.15600
C5014       C  0.42803623  0.08746342  0.27509592    -0.23300
H5015       H  0.39223785  0.10315340  0.39475816     0.05900
H5016       H  0.39612654  0.13860270  0.38921442     0.09100
H5017       H  0.42533915  0.11716499  0.39749781     0.09100
H5018       H  0.44486624  0.09934467  0.26658835     0.09100
H5019       H  0.41120669  0.08821515  0.26037828     0.09100
H5020       H  0.43544308  0.06641994  0.27750362     0.05800
C5021       C  0.33343829  0.06106112  0.22148941    -0.20000
C5022       C  0.32559140  0.05442556  0.24772768    -0.06500
C5023       C  0.30923350  0.03160328  0.25159778     0.14300
C5024       C  0.30129326  0.01586403  0.22915972    -0.20000
C5025       C  0.31024349  0.02136477  0.20269765    -0.06500
C5026       C  0.32854499  0.04333450  0.19956116     0.14300
C5027       C  0.34741147  0.04605179  0.17600060    -0.23400
H5028       H  0.34664306  0.07827710  0.21877569     0.15600
H5029       H  0.28902087  0.99814145  0.23260436     0.15600
C5030       C  0.30057462  0.02351909  0.27952328    -0.23300
H5031       H  0.36808754  0.05044840  0.18357103     0.05900
H5032       H  0.34102575  0.06324548  0.16293722     0.09100
H5033       H  0.34972468  0.02700549  0.16427685     0.09100
H5034       H  0.28895832  0.04034435  0.28903704     0.09100
H5035       H  0.31860215  0.01889414  0.29223495     0.09100
H5036       H  0.28762030  0.00521799  0.27902688     0.05800
C5037       C  0.39216698  0.03964571  0.24903232    -0.20000
C5038       C  0.38193693  0.03946588  0.27528139    -0.06500
C5039       C  0.39437945  0.02300714  0.29505702     0.14300
C5040       C  0.41934507  0.01089111  0.28942784    -0.20000
C5041       C  0.43176459  0.01451584  0.26424823    -0.06500
C5042       C  0.41698485  0.02746370  0.24309128     0.14300
C5043       C  0.42799025  0.03126387  0.21501075    -0.23400
H5044       H  0.38300264  0.05265884  0.23405636     0.15600
H5045       H  0.42971191  0.99962842  0.30524815     0.15600
C5046       C  0.38156427  0.01866844  0.32218643    -0.23300
H5047       H  0.41363880  0.04242833  0.20162852     0.05900
H5048       H  0.43185407  0.01116545  0.20543536     0.09100
H5049       H  0.44681781  0.04330504  0.21600079     0.09100
H5050       H  0.36133661  0.00957439  0.31919525     0.09100
H5051       H  0.37933903  0.03814268  0.33329549     0.09100
H5052       H  0.39379422  0.00466679  0.33502762     0.05800
C5053       C  0.68606422  0.14745246  0.27476717    -0.20000
C5054       C  0.66527187  0.15086647  0.25559870    -0.06500
C5055       C  0.67184457  0.15827051  0.22882992     0.14300
C5056       C  0.69902202  0.16209247  0.22207029    -0.20000
C5057       C  0.71965380  0.15965178  0.24157794    -0.06500
C5058       C  0.71309598  0.15218717  0.26822626     0.14300
C5059       C  0.73466844  0.14898479  0.28971518    -0.23400
H5060       H  0.68114048  0.14069845  0.29490292     0.15600
H5061       H  0.70397580  0.16859467  0.20180347     0.15600
C5062       C  0.65075696  0.16335670  0.20721807    -0.23300
H5063       H  0.72615266  0.14220635  0.30922156     0.05900
H5064       H  0.74489389  0.16865299  0.29337746     0.09100
H5065       H  0.74976280  0.13360037  0.28308154     0.09100
H5066       H  0.62989076  0.16185958  0.21482025     0.09100
H5067       H  0.65341339  0.14845464  0.19048590     0.09100
H5068       H  0.65308550  0.18419690  0.19910520     0.05800
C5069       C  0.65504399  0.21568111  0.31590053    -0.20000
C5070       C  0.65040937  0.23464857  0.29531696    -0.06500
C5071       C  0.63284082  0.22908443  0.27367138     0.14300
C5072       C  0.62144916  0.20337713  0.27213603    -0.20000
C5073       C  0.62817303  0.18350679  0.29136236    -0.06500
C5074       C  0.64433733  0.18978881  0.31395158     0.14300
C5075       C  0.65180148  0.16928044  0.33526183    -0.23400
H5076       H  0.66835173  0.22060675  0.33275715     0.15600
H5077       H  0.60899139  0.19788582  0.25483723     0.15600
C5078       C  0.62665857  0.24993312  0.25224591    -0.23300
H5079       H  0.64377476  0.17604758  0.35509279     0.05900
H5080       H  0.67410329  0.16740627  0.33689140     0.09100
H5081       H  0.64373875  0.14892169  0.33054619     0.09100
H5082       H  0.64548936  0.25555370  0.24176651     0.09100
H5083       H  0.61769990  0.26837670  0.26174181     0.09100
H5084       H  0.61214311  0.24210931  0.23687373     0.05800
C5085       C  0.65680466  0.09107731  0.23411126    -0.20000
C5086       C  0.63146585  0.10379092  0.23128672    -0.06500
C5087       C  0.61673339  0.10023916  0.20677601     0.14300
C5088       C  0.62725946  0.08315003  0.18646809    -0.20000
C5089       C  0.65280269  0.07101191  0.18927341    -0.06500
C5090       C  0.66805706  0.07567300  0.21310371     0.14300
C5091       C  0.69660159  0.06551187  0.21665826    -0.23400
H5092       H  0.66841052  0.09396455  0.25259554     0.15600
H5093       H  0.61584295  0.07986339  0.16793660     0.15600
C5094       C  0.59082443  0.11529067  0.20052863    -0.23300
H5095       H  0.71001069  0.08297099  0.22113448     0.05900
H5096       H  0.70447898  0.05534002  0.19830714     0.09100
H5097       H  0.69772462  0.05111459  0.23385835     0.09100
H5098       H  0.58524325  0.13022600  0.21634537     0.09100
H5099       H  0.57414483  0.10056059  0.19796037     0.09100
H5100       H  0.59307604  0.12681479  0.18143729     0.05800
C5101       C  0.55819365  0.14936841  0.35255094    -0.20000
C5102       C  0.53721179  0.16737714  0.34473970    -0.06500
C5103       C  0.53582348  0.17449585  0.31663628     0.14300
C5104       C  0.55685485  0.16686411  0.29900623    -0.20000
C5105       C  0.57845746  0.15035476  0.30740483    -0.06500
C5106       C  0.57822896  0.14034027  0.33425461     0.14300
C5107       C  0.59827858  0.11940753  0.34416017    -0.23400
H5108       H  0.55873434  0.14146219  0.37291642     0.15600
H5109       H  0.55608099  0.17352177  0.27812569     0.15600
C5110       C  0.51257524  0.18992666  0.30374784    -0.23300
H5111       H  0.60982826  0.12770262  0.36165593     0.05900
H5112       H  0.61270497  0.11301216  0.32837840     0.09100
H5113       H  0.58736242  0.10101582  0.35074393     0.09100
H5114       H  0.52001706  0.20917295  0.29503554     0.09100
H5115       H  0.49597167  0.19497756  0.31761433     0.09100
H5116       H  0.50378735  0.17745198  0.28713159     0.05800
C5117       C  0.57005556  0.05339244  0.27126994    -0.20000
C5118       C  0.54419895  0.05860698  0.26093799    -0.06500
C5119       C  0.53557144  0.08506713  0.25442115     0.14300
C5120       C  0.55388983  0.10611425  0.25801446    -0.20000
C5121       C  0.58000858  0.10060612  0.26777513    -0.06500
C5122       C  0.58812591  0.07418429  0.27513882     0.14300
C5123       C  0.61536489  0.06706840  0.28732458    -0.23400
H5124       H  0.57617631  0.03279689  0.27650106     0.15600
H5125       H  0.54805781  0.12669985  0.25262909     0.15600
C5126       C  0.50752634  0.09165700  0.24423086    -0.23300
H5127       H  0.61251203  0.05699255  0.30712658     0.05900
H5128       H  0.62835547  0.08490000  0.29103369     0.09100
H5129       H  0.62621370  0.05282938  0.27364043     0.09100
H5130       H  0.49775725  0.10636684  0.25824177     0.09100
H5131       H  0.49449309  0.07350168  0.24273420     0.09100
H5132       H  0.50868913  0.10095560  0.22386409     0.05800
loop_ 
_geom_bond_atom_site_label_1 
_geom_bond_atom_site_label_2 
_geom_bond_distance 
_geom_bond_site_symmetry_2 
_ccdc_geom_bond_type 
N1            C5   1.357       .  A
N1            C2   1.349       .  A
N1         C5073   1.412       .  S
C2            C3   1.381       .  A
C2         C5105   1.510       .  S
C3            C4   1.389       .  A
C3         C5121   1.435       .  S
C4            C5   1.373       .  A
C4         C5086   1.491       .  S
C5         C5054   1.488       .  S
N6           C10   1.332       .  A
N6            C7   1.313       .  A
N6         C4990   1.373       .  S
C7            C8   1.400       .  A
C7         C4974   1.509       .  S
C8            C9   1.413       .  A
C8         C5022   1.486       .  S
C9           C10   1.394       .  A
C9         C5038   1.471       .  S
C10        C5006   1.492       .  S
C11          C13   1.541       .  S
C11          C15   1.534       .  S
C11          C14   1.523       .  S
C11        C5102   1.565       .  S
C12          C16   1.549       .  S
C12          C18   1.542       .  S
C12          C17   1.573       .  S
C12        C4942   1.579       .  S
C13          C21   1.383       .  A
C13          C16   1.426       .  A
C14          C25   1.366       .  A
C14          C17   1.392       .  A
C15          C29   1.369       .  A
C15          C18   1.394       .  A
C16          C19   1.370       .  A
C17          C23   1.398       .  A
C18          C26   1.382       .  A
C19          N20   1.344       .  A
C19          H32   1.080       .  S
N20          C21   1.351       .  A
N20        C4958   1.430       .  S
C21          H22   1.083       .  S
C23          N24   1.366       .  A
C23          H33   1.081       .  S
N24          C25   1.352       .  A
N24        C4929   1.451       .  S
C25          H31   1.082       .  S
C26          N27   1.366       .  A
C26          H28   1.077       .  S
N27          C29   1.360       .  A
N27        C5009   1.450       .  S
C29          H30   1.082       .  S
N34          C38   1.345       .  A
N34          C35   1.360       .  A
N34        C4862   1.400       .  S
C35          C36   1.368       .  A
C35        C4846   1.499       .  S
C36          C37   1.404       .  A
C36        C4881   1.505       .  S
C37          C38   1.386       .  A
C37        C4913   1.427       .  S
C38        C4894   1.526       .  S
N39          C43   1.348       .  A
N39          C40   1.358       .  A
N39        C4782   1.444       .  S
C40          C41   1.401       .  A
C40        C4766   1.471       .  S
C41          C42   1.402       .  A
C41        C4801   1.520       .  S
C42          C43   1.403       .  A
C42        C4830   1.468       .  S
C43        C4814   1.506       .  S
C44          C46   1.536       .  S
C44          C48   1.548       .  S
C44          C47   1.544       .  S
C44        C4734   1.581       .  S
C45          C49   1.551       .  S
C45          C51   1.560   1_565  S
C45          C50   1.534       .  S
C45        C4798   1.589       .  S
C46          C54   1.367   1_545  A
C46          C49   1.408   1_545  A
C47          C58   1.382       .  A
C47          C50   1.394   1_545  A
C48          C62   1.386       .  A
C48          C51   1.423       .  A
C49          C52   1.389       .  A
C50          C56   1.365       .  A
C51          C59   1.379       .  A
C52          N53   1.358       .  A
C52          H65   1.081       .  S
N53          C54   1.347       .  A
N53        C4753   1.432       .  S
C54          H55   1.083   1_565  S
C56          N57   1.356   1_565  A
C56          H66   1.082       .  S
N57          C58   1.363       .  A
N57        C4718   1.444       .  S
C58          H64   1.078       .  S
C59          N60   1.353       .  A
C59          H61   1.081       .  S
N60          C62   1.357       .  A
N60        C5089   1.437       .  S
C62          H63   1.082       .  S
C67          C69   1.570       .  S
C67          C71   1.540       .  S
C67          C70   1.575       .  S
C67        C4702   1.601       .  S
C68          C72   1.539       .  S
C68          C74   1.540       .  S
C68          C73   1.555       .  S
C68        C4897   1.583       .  S
C69          C77   1.400       .  A
C69          C72   1.405       .  A
C70          C81   1.401       .  A
C70          C73   1.411       .  A
C71          C85   1.370       .  A
C71          C74   1.400       .  A
C72          C75   1.371       .  A
C73          C79   1.383       .  A
C74          C82   1.387       .  A
C75          N76   1.358       .  A
C75          H88   1.081       .  S
N76          C77   1.376       .  A
N76        C4817   1.468       .  S
C77          H78   1.078       .  S
C79          N80   1.351       .  A
C79          H89   1.081       .  S
N80          C81   1.368       .  A
N80        C4670   1.452       .  S
C81          H87   1.082       .  S
C82          N83   1.363       .  A
C82          H84   1.082       .  S
N83          C85   1.349       .  A
N83        C4686   1.438       .  S
C85          H86   1.083       .  S
C90          C92   1.554   1_545  S
C90          C94   1.545       .  S
C90          C93   1.546   1_545  S
C90        C5025   1.545       .  S
C91          C95   1.544       .  S
C91          C97   1.538       .  S
C91          C96   1.568       .  S
C91        C4654   1.551       .  S
C92         C100   1.388       .  A
C92          C95   1.394       .  A
C93         C104   1.379   1_565  A
C93          C96   1.389       .  A
C94         C108   1.398       .  A
C94          C97   1.395   1_545  A
C95          C98   1.388       .  A
C96         C102   1.394       .  A
C97         C105   1.373       .  A
C98          N99   1.362       .  A
C98         H111   1.081       .  S
N99         C100   1.362       .  A
N99        C4878   1.455       .  S
C100        H101   1.082       .  S
C102        N103   1.372       .  A
C102        H112   1.074       .  S
N103        C104   1.367   1_565  A
N103       C4622   1.475       .  S
C104        H110   1.080       .  S
C105        N106   1.342   1_565  A
C105        H107   1.082       .  S
N106        C108   1.360       .  A
N106       C4638   1.437       .  S
C108        H109   1.081       .  S
N113        C117   1.348       .  A
N113        C114   1.348       .  A
N113       C4542   1.441       .  S
C114        C115   1.384       .  A
C114       C4574   1.468       .  S
C115        C116   1.379       .  A
C115       C4606   1.462       .  S
C116        C117   1.381       .  A
C116       C4593   1.476       .  S
C117       C4558   1.459       .  S
N118        C122   1.350       .  A
N118        C119   1.365       .  A
N118       C4465   1.468       .  S
C119        C120   1.399       .  A
C119       C4478   1.435       .  S
C120        C121   1.407       .  A
C120       C4494   1.562       .  S
C121        C122   1.417       .  A
C121       C4526   1.448       .  S
C122       C4510   1.519       .  S
C123        C125   1.545       .  S
C123        C127   1.532       .  S
C123        C126   1.575       .  S
C123       C4446   1.625       .  S
C124        C128   1.536       .  S
C124        C130   1.532       .  S
C124        C129   1.558       .  S
C124       C4497   1.617       .  S
C125        C133   1.368       .  A
C125        C128   1.434       .  A
C126        C137   1.395       .  A
C126        C129   1.420       .  A
C127        C141   1.367       .  A
C127        C130   1.410       .  A
C128        C131   1.374       .  A
C129        C135   1.377       .  A
C130        C138   1.368       .  A
C131        N132   1.343       .  A
C131        H144   1.084       .  S
N132        C133   1.349       .  A
N132       C4433   1.419       .  S
C133        H134   1.084       .  S
C135        N136   1.356       .  A
C135        H145   1.080       .  S
N136        C137   1.367       .  A
N136       C4414   1.454       .  S
C137        H143   1.080       .  S
C138        N139   1.354       .  A
C138        H140   1.083       .  S
N139        C141   1.351       .  A
N139       C4590   1.416       .  S
C141        H142   1.082       .  S
N146        C150   1.355       .  A
N146        C147   1.361       .  A
N146       C4334   1.446       .  S
C147        C148   1.391       .  A
C147       C4350   1.454       .  S
C148        C149   1.423       .  A
C148       C4382   1.568       .  S
C149        C150   1.429       .  A
C149       C4398   1.448       .  S
C150       C4366   1.558       .  S
N151        C155   1.348       .  A
N151        C152   1.351       .  A
N151       C4270   1.410       .  S
C152        C153   1.385       .  A
C152       C4254   1.499       .  S
C153        C154   1.415       .  A
C153       C4286   1.498       .  S
C154        C155   1.397       .  A
C154       C4321   1.463       .  S
C155       C4305   1.531       .  S
C156        C158   1.530       .  S
C156        C160   1.526       .  S
C156        C159   1.544       .  S
C156       C4222   1.546       .  S
C157        C161   1.541       .  S
C157        C163   1.527       .  S
C157        C162   1.569       .  S
C157       C4289   1.571   1_455  S
C158        C166   1.375       .  A
C158        C161   1.407       .  A
C159        C170   1.379       .  A
C159        C162   1.411       .  A
C160        C174   1.381       .  A
C160        C163   1.400       .  A
C161        C164   1.381   1_455  A
C162        C168   1.390       .  A
C163        C171   1.362       .  A
C164        N165   1.348       .  A
C164        H177   1.083       .  S
N165        C166   1.342   1_655  A
N165       C4241   1.422       .  S
C166        H167   1.082       .  S
C168        N169   1.360       .  A
C168        H178   1.075   1_455  S
N169        C170   1.349       .  A
N169       C4206   1.442       .  S
C170        H176   1.083       .  S
C171        N172   1.340       .  A
C171        H173   1.082       .  S
N172        C174   1.352       .  A
N172       C4577   1.414       .  S
C174        H175   1.082       .  S
C179        C181   1.563       .  S
C179        C183   1.571       .  S
C179        C182   1.563       .  S
C179       C4385   1.621       .  S
C180        C184   1.543       .  S
C180        C186   1.560       .  S
C180        C185   1.567       .  S
C180       C4190   1.617       .  S
C181        C189   1.405       .  A
C181        C184   1.415       .  A
C182        C193   1.388       .  A
C182        C185   1.418       .  A
C183        C197   1.400       .  A
C183        C186   1.416       .  A
C184        C187   1.379       .  A
C185        C191   1.388       .  A
C186        C194   1.396       .  A
C187        N188   1.350       .  A
C187        H200   1.081       .  S
N188        C189   1.364       .  A
N188       C4174   1.455       .  S
C189        H190   1.082       .  S
C191        N192   1.358       .  A
C191        H201   1.081       .  S
N192        C193   1.357       .  A
N192       C4158   1.450       .  S
C193        H199   1.078       .  S
C194        N195   1.366       .  A
C194        H196   1.082       .  S
N195        C197   1.367       .  A
N195       C4302   1.470       .  S
C197        H198   1.082       .  S
C202        C204   1.525       .  S
C202        C206   1.540   1_655  S
C202        C205   1.565       .  S
C202       C4369   1.581       .  S
C203        C207   1.537       .  S
C203        C209   1.591       .  S
C203        C208   1.582       .  S
C203       C4126   1.611       .  S
C204        C212   1.378       .  A
C204        C207   1.383   1_655  A
C205        C216   1.392       .  A
C205        C208   1.416   1_655  A
C206        C220   1.376       .  A
C206        C209   1.420       .  A
C207        C210   1.375   1_455  A
C208        C214   1.405       .  A
C209        C217   1.412       .  A
C210        N211   1.359       .  A
C210        H223   1.081   1_655  S
N211        C212   1.363       .  A
N211       C4142   1.449       .  S
C212        H213   1.081       .  S
C214        N215   1.370       .  A
C214        H224   1.082       .  S
N215        C216   1.358   1_455  A
N215       C4113   1.466       .  S
C216        H222   1.078       .  S
C217        N218   1.375       .  A
C217        H219   1.082       .  S
N218        C220   1.349       .  A
N218       C4513   1.458       .  S
C220        H221   1.083       .  S
N225        C229   1.360       .  A
N225        C226   1.360       .  A
N225       C4030   1.443       .  S
C226        C227   1.388       .  A
C226       C4046   1.491       .  S
C227        C228   1.379       .  A
C227       C4078   1.470       .  S
C228        C229   1.386       .  A
C228       C4094   1.487       .  S
C229       C4062   1.479       .  S
N230        C234   1.364       .  A
N230        C231   1.379       .  A
N230       C3953   1.479       .  S
C231        C232   1.417       .  A
C231       C3969   1.459       .  S
C232        C233   1.421       .  A
C232       C3985   1.587       .  S
C233        C234   1.426       .  A
C233       C4014   1.468       .  S
C234       C3998   1.544       .  S
C235        C237   1.551       .  S
C235        C239   1.559       .  S
C235        C238   1.531       .  S
C235       C3934   1.637       .  S
C236        C240   1.536       .  S
C236        C242   1.544       .  S
C236        C241   1.572       .  S
C236       C3982   1.639       .  S
C237        C245   1.373       .  A
C237        C240   1.422       .  A
C238        C249   1.365       .  A
C238        C241   1.418       .  A
C239        C253   1.385       .  A
C239        C242   1.444       .  A
C240        C243   1.371       .  A
C241        C247   1.390       .  A
C242        C250   1.370       .  A
C243        N244   1.350       .  A
C243        H256   1.083       .  S
N244        C245   1.354       .  A
N244       C3918   1.423       .  S
C245        H246   1.082       .  S
C247        N248   1.361       .  A
C247        H257   1.078       .  S
N248        C249   1.345       .  A
N248       C3902   1.431       .  S
C249        H255   1.083       .  S
C250        N251   1.344       .  A
C250        H252   1.083       .  S
N251        C253   1.350       .  A
N251       C4081   1.425       .  S
C253        H254   1.081       .  S
N258        C262   1.348       .  A
N258        C259   1.358       .  A
N258       C3822   1.435       .  S
C259        C260   1.413       .  A
C259       C3838   1.502       .  S
C260        C261   1.427       .  A
C260       C3873   1.527       .  S
C261        C262   1.401       .  A
C261       C3886   1.487       .  S
C262       C3854   1.517       .  S
N263        C267   1.356       .  A
N263        C264   1.339       .  A
N263       C3761   1.430       .  S
C264        C265   1.399       .  A
C264       C3793   1.518       .  S
C265        C266   1.412       .  A
C265       C3806   1.451       .  S
C266        C267   1.398       .  A
C266       C3774   1.526       .  S
C267       C3742   1.469       .  S
C268        C270   1.540       .  S
C268        C272   1.538       .  S
C268        C271   1.559       .  S
C268       C3713   1.594       .  S
C269        C273   1.541       .  S
C269        C275   1.531   1_556  S
C269        C274   1.564       .  S
C269       C3777   1.599       .  S
C270        C278   1.383   1_554  A
C270        C273   1.419   1_554  A
C271        C282   1.385       .  A
C271        C274   1.424   1_554  A
C272        C286   1.377       .  A
C272        C275   1.402       .  A
C273        C276   1.377       .  A
C274        C280   1.383       .  A
C275        C283   1.369       .  A
C276        N277   1.339       .  A
C276        H289   1.083       .  S
N277        C278   1.349       .  A
N277       C3726   1.422       .  S
C278        H279   1.083       .  S
C280        N281   1.359   1_556  A
C280        H290   1.079       .  S
N281        C282   1.358       .  A
N281       C3694   1.451       .  S
C282        H288   1.080       .  S
C283        N284   1.353       .  A
C283        H285   1.083       .  S
N284        C286   1.356       .  A
N284       C4065   1.427       .  S
C286        H287   1.082       .  S
C291        C293   1.531       .  S
C291        C295   1.562       .  S
C291        C294   1.551       .  S
C291       C3870   1.563       .  S
C292        C296   1.536       .  S
C292        C298   1.573       .  S
C292        C297   1.581       .  S
C292       C3678   1.595       .  S
C293        C301   1.394       .  A
C293        C296   1.377       .  A
C294        C305   1.388       .  A
C294        C297   1.403       .  A
C295        C309   1.381       .  A
C295        C298   1.419       .  A
C296        C299   1.366       .  A
C297        C303   1.401       .  A
C298        C306   1.407       .  A
C299        N300   1.346       .  A
C299        H312   1.081       .  S
N300        C301   1.368       .  A
N300       C3662   1.447       .  S
C301        H302   1.082       .  S
C303        N304   1.374       .  A
C303        H313   1.078       .  S
N304        C305   1.361       .  A
N304       C3646   1.477       .  S
C305        H311   1.077       .  S
C306        N307   1.373       .  A
C306        H308   1.082       .  S
N307        C309   1.355       .  A
N307       C3790   1.463       .  S
C309        H310   1.082       .  S
C314        C316   1.535   1_556  S
C314        C318   1.547       .  S
C314        C317   1.556   1_556  S
C314       C3633   1.584       .  S
C315        C319   1.576       .  S
C315        C321   1.574       .  S
C315        C320   1.547       .  S
C315       C4001   1.603       .  S
C316        C324   1.375       .  A
C316        C319   1.405       .  A
C317        C328   1.385   1_554  A
C317        C320   1.404       .  A
C318        C332   1.391       .  A
C318        C321   1.420   1_556  A
C319        C322   1.413       .  A
C320        C326   1.382       .  A
C321        C329   1.397   1_554  A
C322        N323   1.369       .  A
C322        H335   1.082       .  S
N323        C324   1.342       .  A
N323       C3614   1.451       .  S
C324        H325   1.082       .  S
C326        N327   1.360       .  A
C326        H336   1.082       .  S
N327        C328   1.361   1_554  A
N327       C3598   1.448       .  S
C328        H334   1.082       .  S
C329        N330   1.360       .  A
C329        H331   1.081   1_556  S
N330        C332   1.357       .  A
N330       C3857   1.455       .  S
C332        H333   1.082       .  S
N337        C341   1.348       .  A
N337        C338   1.357       .  A
N337       C3518   1.416       .  S
C338        C339   1.393       .  A
C338       C3534   1.504       .  S
C339        C340   1.391       .  A
C339       C3550   1.473       .  S
C340        C341   1.374       .  A
C340       C3582   1.462       .  S
C341       C3566   1.498       .  S
N342        C346   1.350       .  A
N342        C343   1.337       .  A
N342       C3454   1.424       .  S
C343        C344   1.365       .  A
C343       C3489   1.476       .  S
C344        C345   1.371       .  A
C344       C3505   1.425       .  S
C345        C346   1.386       .  A
C345       C3473   1.486       .  S
C346       C3441   1.456       .  S
N347        C351   1.354       .  A
N347        C348   1.366       .  A
N347       C3374   1.418       .  S
C348        C349   1.386       .  A
C348       C3358   1.517       .  S
C349        C350   1.403       .  A
C349       C3393   1.495       .  S
C350        C351   1.397       .  A
C350       C3422   1.466       .  S
C351       C3406   1.524       .  S
N352        C356   1.354       .  A
N352        C353   1.367       .  A
N352       C3278   1.422       .  S
C353        C354   1.380       .  A
C353       C3294   1.470       .  S
C354        C355   1.426       .  A
C354       C3326   1.571       .  S
C355        C356   1.424       .  A
C355       C3342   1.426       .  S
C356       C3310   1.588       .  S
C357        C359   1.535       .  S
C357        C361   1.558       .  S
C357        C360   1.619       .  S
C357       C3262   1.656       .  S
C358        C362   1.535       .  S
C358        C364   1.536       .  S
C358        C363   1.589       .  S
C358       C3313   1.641       .  S
C359        C367   1.364       .  A
C359        C362   1.410       .  A
C360        C371   1.421       .  A
C360        C363   1.438       .  A
C361        C375   1.387       .  A
C361        C364   1.408       .  A
C362        C365   1.382       .  A
C363        C369   1.404       .  A
C364        C372   1.363       .  A
C365        N366   1.353       .  A
C365        H378   1.083       .  S
N366        C367   1.347       .  A
N366       C3246   1.421       .  S
C367        H368   1.084       .  S
C369        N370   1.372       .  A
C369        H379   1.077       .  S
N370        C371   1.383       .  A
N370       C3230   1.503       .  S
C371        H377   1.081       .  S
C372        N373   1.358       .  A
C372        H374   1.079       .  S
N373        C375   1.372       .  A
N373       C3390   1.457       .  S
C375        H376   1.080       .  S
C380        C382   1.557   1_556  S
C380        C384   1.572       .  S
C380        C383   1.579       .  S
C380       C3329   1.627       .  S
C381        C385   1.559       .  S
C381        C387   1.538       .  S
C381        C386   1.542       .  S
C381       C3217   1.611       .  S
C382        C390   1.385       .  A
C382        C385   1.416       .  A
C383        C394   1.400       .  A
C383        C386   1.414   1_556  A
C384        C398   1.399       .  A
C384        C387   1.406   1_556  A
C385        C388   1.382       .  A
C386        C392   1.376       .  A
C387        C395   1.368   1_554  A
C388        N389   1.358       .  A
C388        H401   1.071       .  S
N389        C390   1.363       .  A
N389       C3569   1.453       .  S
C390        H391   1.082       .  S
C392        N393   1.358       .  A
C392        H402   1.083       .  S
N393        C394   1.371   1_554  A
N393       C3185   1.460       .  S
C394        H400   1.079       .  S
C395        N396   1.351       .  A
C395        H397   1.075   1_556  S
N396        C398   1.372       .  A
N396       C3198   1.458       .  S
C398        H399   1.081       .  S
C403        C405   1.529       .  S
C403        C407   1.536   1_556  S
C403        C406   1.562       .  S
C403       C3409   1.584       .  S
C404        C408   1.530   1_554  S
C404        C410   1.561       .  S
C404        C409   1.556       .  S
C404       C3166   1.595       .  S
C405        C413   1.371       .  A
C405        C408   1.397       .  A
C406        C417   1.386       .  A
C406        C409   1.411   1_556  A
C407        C421   1.364       .  A
C407        C410   1.424       .  A
C408        C411   1.365       .  A
C409        C415   1.388       .  A
C410        C418   1.393       .  A
C411        N412   1.353       .  A
C411        H424   1.082       .  S
N412        C413   1.356       .  A
N412       C3150   1.426       .  S
C413        H414   1.082       .  S
C415        N416   1.362   1_554  A
C415        H425   1.082       .  S
N416        C417   1.358       .  A
N416       C3134   1.447       .  S
C417        H423   1.081       .  S
C418        N419   1.359       .  A
C418        H420   1.083       .  S
N419        C421   1.343       .  A
N419       C3486   1.429       .  S
C421        H422   1.084       .  S
C426        C428   1.534       .  S
C426        C430   1.546       .  S
C426        C429   1.535       .  S
C426       C3553   1.537       .  S
C427        C431   1.544       .  S
C427        C433   1.521       .  S
C427        C432   1.566       .  S
C427       C3102   1.535       .  S
C428        C436   1.392       .  A
C428        C431   1.404       .  A
C429        C440   1.365       .  A
C429        C432   1.399       .  A
C430        C444   1.383       .  A
C430        C433   1.388       .  A
C431        C434   1.374       .  A
C432        C438   1.399       .  A
C433        C441   1.375       .  A
C434        N435   1.346       .  A
C434        H447   1.082       .  S
N435        C436   1.353       .  A
N435       C3118   1.442       .  S
C436        H437   1.081       .  S
C438        N439   1.363       .  A
C438        H448   1.082       .  S
N439        C440   1.346       .  A
N439       C3086   1.439       .  S
C440        H446   1.081       .  S
C441        N442   1.354       .  A
C441        H443   1.081       .  S
N442        C444   1.360       .  A
N442       C3470   1.434       .  S
C444        H445   1.082       .  S
N449        C453   1.356       .  A
N449        C450   1.348       .  A
N449       C3022   1.421       .  S
C450        C451   1.398       .  A
C450       C3038   1.522       .  S
C451        C452   1.393       .  A
C451       C3070   1.434       .  S
C452        C453   1.369       .  A
C452       C3054   1.514       .  S
C453       C3006   1.462       .  S
N454        C458   1.351       .  A
N454        C455   1.359       .  A
N454       C2926   1.453       .  S
C455        C456   1.397       .  A
C455       C2942   1.467       .  S
C456        C457   1.395       .  A
C456       C2974   1.512       .  S
C457        C458   1.396       .  A
C457       C2993   1.468       .  S
C458       C2958   1.488       .  S
N459        C463   1.349       .  A
N459        C460   1.347       .  A
N459       C2846   1.416       .  S
C460        C461   1.361       .  A
C460       C2862   1.459       .  S
C461        C462   1.397       .  A
C461       C2894   1.506       .  S
C462        C463   1.399       .  A
C462       C2910   1.433       .  S
C463       C2878   1.524       .  S
N464        C468   1.372       .  A
N464        C465   1.357       .  A
N464       C2766   1.479       .  S
C465        C466   1.410       .  A
C465       C2798   1.501       .  S
C466        C467   1.396       .  A
C466       C2830   1.464       .  S
C467        C468   1.402       .  A
C467       C2814   1.550       .  S
C468       C2782   1.447       .  S
C469        C471   1.553       .  S
C469        C473   1.541       .  S
C469        C472   1.575       .  S
C469       C2734   1.570       .  S
C470        C474   1.551       .  S
C470        C476   1.534       .  S
C470        C475   1.554       .  S
C470       C2881   1.555       .  S
C471        C479   1.393       .  A
C471        C474   1.402       .  A
C472        C483   1.402       .  A
C472        C475   1.407       .  A
C473        C487   1.375       .  A
C473        C476   1.388       .  A
C474        C477   1.386       .  A
C475        C481   1.379       .  A
C476        C484   1.391       .  A
C477        N478   1.358       .  A
C477        H490   1.082       .  S
N478        C479   1.362       .  A
N478       C2801   1.455       .  S
C479        H480   1.081       .  S
C481        N482   1.358       .  A
C481        H491   1.069       .  S
N482        C483   1.371       .  A
N482       C2718   1.470       .  S
C483        H489   1.080       .  S
C484        N485   1.364       .  A
C484        H486   1.080       .  S
N485        C487   1.353       .  A
N485       C2750   1.451       .  S
C487        H488   1.081       .  S
C492        C494   1.570   1_565  S
C492        C496   1.557       .  S
C492        C495   1.563   1_565  S
C492       C2817   1.609       .  S
C493        C497   1.556       .  S
C493        C499   1.532       .  S
C493        C498   1.549       .  S
C493       C2702   1.601       .  S
C494        C502   1.393       .  A
C494        C497   1.424       .  A
C495        C506   1.391   1_545  A
C495        C498   1.411       .  A
C496        C510   1.401       .  A
C496        C499   1.406   1_565  A
C497        C500   1.393       .  A
C498        C504   1.380       .  A
C499        C507   1.370   1_545  A
C500        N501   1.364       .  A
C500        H513   1.080       .  S
N501        C502   1.363       .  A
N501       C3057   1.468       .  S
C502        H503   1.082       .  S
C504        N505   1.352       .  A
C504        H514   1.082       .  S
N505        C506   1.357   1_545  A
N505       C2670   1.439       .  S
C506        H512   1.077       .  S
C507        N508   1.344       .  A
C507        H509   1.083   1_565  S
N508        C510   1.364       .  A
N508       C2686   1.441       .  S
C510        H511   1.082       .  S
C515        C517   1.562   1_545  S
C515        C519   1.563       .  S
C515        C518   1.553       .  S
C515       C2977   1.572       .  S
C516        C520   1.547       .  S
C516        C522   1.539       .  S
C516        C521   1.544       .  S
C516       C2638   1.557       .  S
C517        C525   1.391       .  A
C517        C520   1.408       .  A
C518        C529   1.385       .  A
C518        C521   1.394   1_545  A
C519        C533   1.402       .  A
C519        C522   1.399   1_545  A
C520        C523   1.389       .  A
C521        C527   1.381       .  A
C522        C530   1.378   1_565  A
C523        N524   1.356       .  A
C523        H536   1.082       .  S
N524        C525   1.359       .  A
N524       C2897   1.448       .  S
C525        H526   1.082       .  S
C527        N528   1.361       .  A
C527        H537   1.079       .  S
N528        C529   1.366   1_565  A
N528       C2622   1.455       .  S
C529        H535   1.081       .  S
C530        N531   1.351       .  A
C530        H532   1.082   1_545  S
N531        C533   1.365       .  A
N531       C2654   1.452       .  S
C533        H534   1.082       .  S
C538        C540   1.566       .  S
C538        C542   1.562       .  S
C538        C541   1.526       .  S
C538       C3041   1.584       .  S
C539        C543   1.545       .  S
C539        C545   1.538       .  S
C539        C544   1.555       .  S
C539       C2590   1.570       .  S
C540        C548   1.395       .  A
C540        C543   1.418       .  A
C541        C552   1.363       .  A
C541        C544   1.395       .  A
C542        C556   1.384       .  A
C542        C545   1.397       .  A
C543        C546   1.375       .  A
C544        C550   1.390       .  A
C545        C553   1.385       .  A
C546        N547   1.352       .  A
C546        H559   1.083       .  S
N547        C548   1.360       .  A
N547       C2606   1.451       .  S
C548        H549   1.075       .  S
C550        N551   1.366       .  A
C550        H560   1.081       .  S
N551        C552   1.350       .  A
N551       C2574   1.444       .  S
C552        H558   1.076       .  S
C553        N554   1.359       .  A
C553        H555   1.082       .  S
N554        C556   1.356       .  A
N554       C2961   1.444       .  S
C556        H557   1.081       .  S
O561       Ni567   1.911       .  S
O561        C582   1.265       .  A
O562       Ni585   1.885       .  S
O562        C571   1.261       .  A
O563       Ni567   1.893       .  S
O563       Ni585   1.883       .  S
O563       Ni579   1.906       .  S
O563        H586   0.966       .  S
C564       C2558   1.458       .  S
C564        O581   1.276       .  A
C564        O573   1.276       .  A
O565       Ni584   1.901       .  S
O565        C571   1.263       .  A
O566       Ni584   1.908       .  S
O566        C568   1.263       .  A
Ni567       O570   1.934       .  S
Ni567       O572   1.878       .  S
C568       C2542   1.458       .  S
C568        O578   1.258       .  A
O569       Ni585   1.875       .  S
O569        C575   1.268       .  A
O570        C575   1.279       .  A
C571       C2526   1.452       .  S
O572        C574   1.260       .  A
O573       Ni584   1.906       .  S
C574       C3377   1.468       .  S
C574        O580   1.263       .  A
C575       C2865   1.446       .  S
H576        O577   0.965       .  S
O577       Ni585   1.908       .  S
O577       Ni579   1.870       .  S
O577       Ni584   1.888       .  S
O578       Ni579   1.887       .  S
Ni579       O583   1.873       .  S
Ni579       O581   1.903       .  S
O580       Ni585   1.911       .  S
C582       C2510   1.433       .  S
C582        O583   1.256       .  A
O587       Ni593   1.874       .  S
O587        C608   1.251       .  A
O588       Ni611   1.899       .  S
O588        C597   1.267       .  A
O589       Ni593   1.863       .  S
O589       Ni611   1.875       .  S
O589       Ni605   1.929       .  S
O589        H612   0.966       .  S
C590       C2465   1.479       .  S
C590        O607   1.289       .  A
C590        O599   1.278       .  A
O591       Ni610   1.912       .  S
O591        C597   1.266       .  A
O592       Ni610   1.893       .  S
O592        C594   1.265       .  A
Ni593       O596   1.898       .  S
Ni593       O598   1.894       .  S
C594       C2494   1.493       .  S
C594        O604   1.282       .  A
O595       Ni611   1.935       .  S
O595        C601   1.285       .  A
O596        C601   1.281       .  A
C597       C2945   1.458       .  S
O598        C600   1.259       .  A
O599       Ni610   1.909       .  S
C600       C4257   1.491       .  S
C600        O606   1.272       .  A
C601       C3297   1.480       .  S
H602        O603   0.966       .  S
O603       Ni611   1.917       .  S
O603       Ni605   1.900       .  S
O603       Ni610   1.877       .  S
O604       Ni605   1.966       .  S
Ni605       O609   1.968       .  S
Ni605       O607   1.952       .  S
O606       Ni611   1.948       .  S
C608       C2478   1.495       .  S
C608        O609   1.279       .  A
N613        C617   1.357       .  A
N613        C614   1.347       .  A
N613       C2625   1.446       .  S
C614        C615   1.393       .  A
C614       C2462   1.494   1_565  S
C615        C616   1.391       .  A
C615       C4238   1.462   1_565  S
C616        C617   1.391       .  A
C616       C2446   1.504       .  S
C617       C2545   1.458       .  S
N618        C622   1.346       .  A
N618        C619   1.348       .  A
N618       C4209   1.454       .  S
C619        C620   1.413       .  A
C619       C2481   1.495   1_455  S
C620        C621   1.422       .  A
C620       C3201   1.500       .  S
C621        C622   1.391       .  A
C621       C3630   1.516       .  S
C622       C2430   1.454       .  S
O623       Ni629   1.927       .  S
O623        C644   1.272       .  A
O624       Ni647   1.927       .  S
O624        C633   1.266       .  A
O625       Ni629   1.902       .  S
O625       Ni647   1.916       .  S
O625       Ni641   1.922       .  S
O625        H648   0.966       .  S
C626       C2433   1.462       .  S
C626        O643   1.282       .  A
C626        O635   1.278       .  A
O627       Ni646   1.887       .  S
O627        C633   1.256       .  A
O628       Ni646   1.886       .  S
O628        C630   1.260       .  A
Ni629       O632   1.937       .  S
Ni629       O634   1.881       .  S
C630       C2401   1.467       .  S
C630        O640   1.261       .  A
O631       Ni647   1.860       .  S
O631        C637   1.258       .  A
O632        C637   1.274       .  A
C633       C2414   1.468       .  S
O634        C636   1.265       .  A
O635       Ni646   1.892       .  S
C636       C3825   1.474       .  S
C636        O642   1.280       .  A
C637       C3009   1.445       .  S
H638        O639   0.967       .  S
O639       Ni647   1.889       .  S
O639       Ni641   1.863       .  S
O639       Ni646   1.877       .  S
O640       Ni641   1.916       .  S
Ni641       O645   1.877       .  S
Ni641       O643   1.921       .  S
O642       Ni647   1.954       .  S
C644       C4545   1.452       .  S
C644        O645   1.260       .  A
N649        C653   1.347       .  A
N649        C650   1.347       .  A
N649       C2673   1.445       .  S
C650        C651   1.394       .  A
C650       C2385   1.466   1_545  S
C651        C652   1.396       .  A
C651       C2366   1.492   1_545  S
C652        C653   1.392       .  A
C652       C4225   1.483       .  S
C653       C2398   1.468       .  S
O654       Ni660   1.879       .  S
O654        C675   1.250       .  A
O655       Ni678   1.897       .  S
O655        C664   1.263       .  A
O656       Ni660   1.886       .  S
O656       Ni678   1.885       .  S
O656       Ni672   1.924       .  S
O656        H679   0.966       .  S
C657       C2318   1.431       .  S
C657        O674   1.277       .  A
C657        O666   1.277       .  A
O658       Ni677   1.908       .  S
O658        C664   1.265       .  A
O659       Ni677   1.889       .  S
O659        C661   1.266       .  A
Ni660       O663   1.885       .  S
Ni660       O665   1.888       .  S
C661       C2337   1.461       .  S
C661        O671   1.262       .  A
O662       Ni678   1.909       .  S
O662        C668   1.277       .  A
O663        C668   1.273       .  A
C664       C2382   1.456       .  S
O665        C667   1.260       .  A
O666       Ni677   1.901       .  S
C667       C2785   1.449       .  S
C667        O673   1.258       .  A
C668       C2350   1.446       .  S
H669        O670   0.964       .  S
O670       Ni678   1.899       .  S
O670       Ni672   1.894       .  S
O670       Ni677   1.877       .  S
O671       Ni672   1.897       .  S
Ni672       O676   1.936       .  S
Ni672       O674   1.896       .  S
O673       Ni678   1.892       .  S
C675       C3745   1.485       .  S
C675        O676   1.266       .  A
N680        C684   1.350       .  A
N680        C681   1.342       .  A
N680       C2302   1.436       .  S
C681        C682   1.374       .  A
C681       C2561   1.458   1_455  S
C682        C683   1.377       .  A
C682       C3153   1.463       .  S
C683        C684   1.385       .  A
C683       C3729   1.474       .  S
C684       C2334   1.460       .  S
N685        C689   1.341       .  A
N685        C686   1.340       .  A
N685       C3697   1.451       .  S
C686        C687   1.389       .  A
C686       C2289   1.447       .  S
C687        C688   1.396       .  A
C687       C4657   1.485       .  S
C688        C689   1.387       .  A
C688       C2689   1.484   1_554  S
C689       C2353   1.444   1_554  S
O690       Ni696   1.918       .  S
O690        C711   1.272       .  A
O691       Ni714   1.876       .  S
O691        C700   1.257       .  A
O692       Ni696   1.877       .  S
O692       Ni714   1.864       .  S
O692       Ni708   1.943       .  S
O692        H715   0.964       .  S
C693       C4849   1.512       .  S
C693        O710   1.293       .  A
C693        O702   1.278       .  A
O694       Ni713   1.901       .  S
O694        C700   1.263       .  A
O695       Ni713   1.902       .  S
O695        C697   1.263       .  A
Ni696       O699   1.941       .  S
Ni696       O701   1.920       .  S
C697       C4033   1.470       .  S
C697        O707   1.265       .  A
O698       Ni714   1.923       .  S
O698        C704   1.277       .  A
O699        C704   1.282       .  A
C700       C2286   1.442       .  S
O701        C703   1.268       .  A
O702       Ni713   1.918       .  S
C703       C2270   1.486       .  S
C703        O709   1.275       .  A
C704       C2257   1.493       .  S
H705        O706   0.966       .  S
O706       Ni714   1.927       .  S
O706       Ni708   1.878       .  S
O706       Ni713   1.887       .  S
O707       Ni708   1.926       .  S
Ni708       O712   1.884       .  S
Ni708       O710   1.963       .  S
O709       Ni714   1.941       .  S
C711       C2238   1.446       .  S
C711        O712   1.269       .  A
N716        C720   1.359   1_455  A
N716        C717   1.358       .  A
N716       C2209   1.472       .  S
C717        C718   1.420       .  A
C717       C2254   1.488       .  S
C718        C719   1.440       .  A
C718       C3710   1.534       .  S
C719        C720   1.416   1_455  A
C719       C3169   1.537   1_455  S
C720       C2225   1.485       .  S
O721       Ni727   1.913       .  S
O721        C742   1.273       .  A
O722       Ni745   1.876       .  S
O722        C731   1.256       .  A
O723       Ni727   1.905       .  S
O723       Ni745   1.876       .  S
O723       Ni739   1.930       .  S
O723        H746   0.966       .  S
C724       C2158   1.472       .  S
C724        O741   1.272       .  A
C724        O733   1.281       .  A
O725       Ni744   1.922       .  S
O725        C731   1.266       .  A
O726       Ni744   1.895       .  S
O726        C728   1.264       .  A
Ni727       O730   1.942       .  S
Ni727       O732   1.923       .  S
C728       C4769   1.483       .  S
C728        O738   1.263       .  A
O729       Ni745   1.885       .  S
O729        C735   1.269       .  A
O730        C735   1.280       .  A
C731       C3457   1.435       .  S
O732        C734   1.271       .  A
O733       Ni744   1.935       .  S
C734       C2222   1.476       .  S
C734        O740   1.266       .  A
C735       C2177   1.470       .  S
H736        O737   0.966       .  S
O737       Ni745   1.907       .  S
O737       Ni739   1.877       .  S
O737       Ni744   1.899       .  S
O738       Ni739   1.920       .  S
Ni739       O743   1.860       .  S
Ni739       O741   1.892       .  S
O740       Ni745   1.913       .  S
C742       C2193   1.457       .  S
C742        O743   1.251       .  A
N747        C751   1.355       .  A
N747        C748   1.346   1_556  A
N747       C3137   1.449       .  S
C748        C749   1.389       .  A
C748       C2174   1.471       .  S
C749        C750   1.386   1_554  A
C749       C4750   1.469       .  S
C750        C751   1.394       .  A
C750       C2641   1.498       .  S
C751       C2529   1.453       .  S
O752       Ni758   1.900       .  S
O752        C773   1.266       .  A
O753       Ni776   1.939       .  S
O753        C762   1.278       .  A
O754       Ni758   1.893       .  S
O754       Ni776   1.903       .  S
O754       Ni770   1.910       .  S
O754        H777   0.966       .  S
C755       C2142   1.469       .  S
C755        O772   1.281       .  A
C755        O764   1.280       .  A
O756       Ni775   1.945       .  S
O756        C762   1.277       .  A
O757       Ni775   1.921       .  S
O757        C759   1.271       .  A
Ni758       O761   1.902       .  S
Ni758       O763   1.921       .  S
C759       C2129   1.545       .  S
C759        O769   1.297       .  A
O760       Ni776   1.931       .  S
O760        C766   1.284       .  A
O761        C766   1.276       .  A
C762       C4462   1.508       .  S
O763        C765   1.267       .  A
O764       Ni775   1.921       .  S
C765       C3950   1.546       .  S
C765        O771   1.287       .  A
C766       C4977   1.465       .  S
H767        O768   0.967       .  S
O768       Ni776   1.905       .  S
O768       Ni770   1.927       .  S
O768       Ni775   1.894       .  S
O769       Ni770   2.013       .  S
Ni770       O774   1.977       .  S
Ni770       O772   1.923       .  S
O771       Ni776   1.993       .  S
C773       C2110   1.515       .  S
C773        O774   1.288       .  A
N778        C782   1.364       .  A
N778        C779   1.350   1_655  A
N778       C4110   1.478   1_655  S
C779        C780   1.411       .  A
C779       C2145   1.482       .  S
C780        C781   1.427   1_455  A
C780       C3617   1.514       .  S
C781        C782   1.419       .  A
C781       C3214   1.550       .  S
C782       C2097   1.465       .  S
N783        C787   1.366       .  A
N783        C784   1.355   1_565  A
N783       C4625   1.462       .  S
C784        C785   1.437       .  A
C784       C2126   1.550       .  S
C785        C786   1.506   1_545  A
C785       C4129   1.553       .  S
C786        C787   1.442       .  A
C786       C2078   1.623       .  S
C787       C2273   1.508       .  S
N788        C792   1.362   1_554  A
N788        C789   1.348       .  A
N788       C3601   1.453       .  S
C789        C790   1.409       .  A
C789       C2113   1.511       .  S
C790        C791   1.420   1_554  A
C790       C4641   1.475       .  S
C791        C792   1.398       .  A
C791       C2705   1.541       .  S
C792       C2417   1.463       .  S
N793        C797   1.343   1_545  A
N793        C794   1.350       .  A
N793       C4721   1.439       .  S
C794        C795   1.395       .  A
C794       C2065   1.465       .  S
C795        C796   1.387   1_545  A
C795       C4145   1.481       .  S
C796        C797   1.385       .  A
C796       C2049   1.480       .  S
C797       C2190   1.469       .  S
O798       Ni804   1.929       .  S
O798        C819   1.275       .  A
O799       Ni822   1.906       .  S
O799        C808   1.267       .  A
O800       Ni804   1.899       .  S
O800       Ni822   1.906       .  S
O800       Ni816   1.907       .  S
O800        H823   0.967       .  S
C801       C2062   1.474       .  S
C801        O818   1.287       .  A
C801        O810   1.275       .  A
O802       Ni821   1.902       .  S
O802        C808   1.261       .  A
O803       Ni821   1.890       .  S
O803        C805   1.259       .  A
Ni804       O807   1.941       .  S
Ni804       O809   1.908       .  S
C805       C2030   1.500       .  S
C805        O815   1.276       .  A
O806       Ni822   1.853       .  S
O806        C812   1.259       .  A
O807        C812   1.276       .  A
C808       C2094   1.469       .  S
O809        C811   1.268       .  A
O810       Ni821   1.869       .  S
C811       C4337   1.479       .  S
C811        O817   1.275       .  A
C812       C3521   1.433       .  S
H813        O814   0.964       .  S
O814       Ni822   1.870       .  S
O814       Ni816   1.884       .  S
O814       Ni821   1.863       .  S
O815       Ni816   1.950       .  S
Ni816       O820   1.917       .  S
Ni816       O818   1.943       .  S
O817       Ni822   1.948       .  S
C819       C5057   1.475       .  S
C819        O820   1.276       .  A
N824        C828   1.366       .  A
N824        C825   1.354       .  A
N824       C3182   1.459       .  S
C825        C826   1.404       .  A
C825       C2497   1.501   1_554  S
C826        C827   1.411       .  A
C826       C2657   1.492   1_554  S
C827        C828   1.407       .  A
C827       C4737   1.523       .  S
C828       C2033   1.478       .  S
N829        C833   1.338       .  A
N829        C830   1.351       .  A
N829       C1966   1.419       .  S
C830        C831   1.381       .  A
C830       C2241   1.457       .  S
C831        C832   1.396       .  A
C831       C2001   1.510       .  S
C832        C833   1.381       .  A
C832       C2014   1.431       .  S
C833       C1982   1.502       .  S
N834        C838   1.356       .  A
N834        C835   1.352       .  A
N834       C1902   1.460       .  S
C835        C836   1.405       .  A
C835       C1921   1.488       .  S
C836        C837   1.398       .  A
C836       C1953   1.471       .  S
C837        C838   1.396       .  A
C837       C1934   1.525       .  S
C838       C2321   1.449       .  S
N839        C843   1.350       .  A
N839        C840   1.344       .  A
N839       C1838   1.433       .  S
C840        C841   1.380       .  A
C840       C1854   1.480       .  S
C841        C842   1.379       .  A
C841       C1886   1.442       .  S
C842        C843   1.377       .  A
C842       C1870   1.493       .  S
C843       C2513   1.452       .  S
N844        C848   1.371       .  A
N844        C845   1.378       .  A
N844       C1774   1.457       .  S
C845        C846   1.405       .  A
C845       C2161   1.475       .  S
C846        C847   1.444       .  A
C846       C1806   1.609       .  S
C847        C848   1.452       .  A
C847       C1822   1.463       .  S
C848       C1790   1.606       .  S
C849        C851   1.535       .  S
C849        C853   1.557       .  S
C849        C852   1.563       .  S
C849       C1758   1.647       .  S
C850        C854   1.541       .  S
C850        C856   1.543       .  S
C850        C855   1.564       .  S
C850       C1793   1.649       .  S
C851        C859   1.365       .  A
C851        C854   1.421       .  A
C852        C863   1.387       .  A
C852        C855   1.435       .  A
C853        C867   1.385       .  A
C853        C856   1.431       .  A
C854        C857   1.373       .  A
C855        C861   1.390       .  A
C856        C864   1.363       .  A
C857        N858   1.352       .  A
C857        H870   1.080       .  S
N858        C859   1.349       .  A
N858       C1742   1.426       .  S
C859        H860   1.084       .  S
C861        N862   1.364       .  A
C861        H871   1.081       .  S
N862        C863   1.357       .  A
N862       C1726   1.465       .  S
C863        H869   1.078       .  S
C864        N865   1.342       .  A
C864        H866   1.081       .  S
N865        C867   1.359       .  A
N865       C1857   1.423       .  S
C867        H868   1.082       .  S
C872        C874   1.535   1_455  S
C872        C876   1.576       .  S
C872        C875   1.574       .  S
C872       C2081   1.667       .  S
C873        C877   1.537       .  S
C873        C879   1.554   1_655  S
C873        C878   1.589       .  S
C873       C1809   1.653       .  S
C874        C882   1.367       .  A
C874        C877   1.416       .  A
C875        C886   1.392       .  A
C875        C878   1.438   1_455  A
C876        C890   1.402       .  A
C876        C879   1.434       .  A
C877        C880   1.385       .  A
C878        C884   1.394       .  A
C879        C887   1.384       .  A
C880        N881   1.348       .  A
C880        H893   1.082       .  S
N881        C882   1.341       .  A
N881       C2046   1.421       .  S
C882        H883   1.080       .  S
C884        N885   1.366   1_655  A
C884        H894   1.078       .  S
N885        C886   1.366       .  A
N885       C2206   1.464       .  S
C886        H892   1.082       .  S
C887        N888   1.355       .  A
C887        H889   1.082       .  S
N888        C890   1.365       .  A
N888       C1998   1.458       .  S
C890        H891   1.081       .  S
C895        C897   1.540       .  S
C895        C899   1.537   1_455  S
C895        C898   1.535       .  S
C895       C2449   1.578   1_455  S
C896        C900   1.565       .  S
C896        C902   1.561       .  S
C896        C901   1.538       .  S
C896       C1937   1.591       .  S
C897        C905   1.374       .  A
C897        C900   1.414       .  A
C898        C909   1.374       .  A
C898        C901   1.394       .  A
C899        C913   1.378       .  A
C899        C902   1.423   1_655  A
C900        C903   1.397       .  A
C901        C907   1.371       .  A
C902        C910   1.387       .  A
C903        N904   1.361       .  A
C903        H916   1.081       .  S
N904        C905   1.349       .  A
N904       C2369   1.440       .  S
C905        H906   1.082       .  S
C907        N908   1.358       .  A
C907        H917   1.082       .  S
N908        C909   1.359       .  A
N908       C2305   1.440       .  S
C909        H915   1.078   1_455  S
C910        N911   1.351   1_455  A
C910        H912   1.081       .  S
N911        C913   1.342       .  A
N911       C1873   1.428       .  S
C913        H914   1.082       .  S
C918        C920   1.549       .  S
C918        C922   1.545       .  S
C918        C921   1.551       .  S
C918       C1985   1.554       .  S
C919        C923   1.542       .  S
C919        C925   1.536       .  S
C919        C924   1.560       .  S
C919       C1694   1.550       .  S
C920        C928   1.400       .  A
C920        C923   1.405       .  A
C921        C932   1.381       .  A
C921        C924   1.400       .  A
C922        C936   1.387       .  A
C922        C925   1.402       .  A
C923        C926   1.382       .  A
C924        C930   1.390       .  A
C925        C933   1.391       .  A
C926        N927   1.349       .  A
C926        H939   1.082       .  S
N927        C928   1.361       .  A
N927       C1710   1.452       .  S
C928        H929   1.082       .  S
C930        N931   1.362       .  A
C930        H940   1.082       .  S
N931        C932   1.356       .  A
N931       C1681   1.449       .  S
C932        H938   1.080       .  S
C933        N934   1.354       .  A
C933        H935   1.083       .  S
N934        C936   1.351       .  A
N934       C1918   1.444       .  S
C936        H937   1.083       .  S
N941        C945   1.355       .  A
N941        C942   1.355       .  A
N941       C4417   1.453       .  S
C942        C943   1.413       .  A
C942       C1649   1.499       .  S
C943        C944   1.406       .  A
C943       C2609   1.487       .  S
C944        C945   1.396       .  A
C944       C4945   1.514       .  S
C945       C1662   1.469       .  S
N946        C950   1.336       .  A
N946        C947   1.341       .  A
N946       C3905   1.437       .  S
C947        C948   1.371       .  A
C947       C1614   1.422       .  S
C948        C949   1.384       .  A
C948       C1713   1.497       .  S
C949        C950   1.383       .  A
C949       C4430   1.446       .  S
C950       C1630   1.459       .  S
N951        C955   1.341       .  A
N951        C952   1.347       .  A
N951       C4926   1.443       .  S
C952        C953   1.386       .  A
C952       C1585   1.453       .  S
C953        C954   1.380       .  A
C953       C3121   1.473       .  S
C954        C955   1.380       .  A
C954       C3921   1.473       .  S
C955       C1598   1.449       .  S
O956       Ni962   1.880       .  S
O956        C977   1.257       .  A
O957       Ni980   1.855       .  S
O957        C966   1.262       .  A
O958       Ni962   1.874       .  S
O958       Ni980   1.857       .  S
O958       Ni974   1.879       .  S
O958        H981   0.964       .  S
C959       C4993   1.446       .  S
C959        O976   1.257       .  A
C959        O968   1.269       .  A
O960       Ni979   1.930       .  S
O960        C966   1.274       .  A
O961       Ni979   1.889       .  S
O961        C963   1.269       .  A
Ni962       O965   1.871       .  S
Ni962       O967   1.894       .  S
C963       C3966   1.475       .  S
C963        O973   1.278       .  A
O964       Ni980   1.942       .  S
O964        C970   1.284       .  A
O965        C970   1.273       .  A
C966       C1601   1.472       .  S
O967        C969   1.260       .  A
O968       Ni979   1.932       .  S
C969       C1665   1.458       .  S
C969        O975   1.263       .  A
C970       C1633   1.457       .  S
H971        O972   0.966       .  S
O972       Ni980   1.912       .  S
O972       Ni974   1.904       .  S
O972       Ni979   1.899       .  S
O973       Ni974   1.947       .  S
Ni974       O978   1.885       .  S
Ni974       O976   1.878       .  S
O975       Ni980   1.915       .  S
C977       C4481   1.420       .  S
C977        O978   1.261       .  A
O982       Ni988   1.927       .  S
O982       C1003   1.271       .  A
O983      Ni1006   1.867       .  S
O983        C992   1.254       .  A
O984       Ni988   1.906       .  S
O984      Ni1006   1.875       .  S
O984      Ni1000   1.903       .  S
O984       H1007   0.966       .  S
C985       C1582   1.441       .  S
C985       O1002   1.274       .  A
C985        O994   1.273       .  A
O986      Ni1005   1.884       .  S
O986        C992   1.262       .  A
O987      Ni1005   1.920       .  S
O987        C989   1.268       .  A
Ni988       O991   1.947       .  S
Ni988       O993   1.907       .  S
C989       C1550   1.488       .  S
C989        O999   1.264       .  A
O990      Ni1006   1.836       .  S
O990        C996   1.256       .  A
O991        C996   1.279       .  A
C992       C1566   1.460       .  S
O993        C995   1.267       .  A
O994      Ni1005   1.902       .  S
C995       C3537   1.507       .  S
C995       O1001   1.280       .  A
C996       C4353   1.442       .  S
H997        O998   0.966       .  S
O998      Ni1006   1.915       .  S
O998      Ni1000   1.866       .  S
O998      Ni1005   1.905       .  S
O999      Ni1000   1.918       .  S
Ni1000     O1004   1.856       .  S
Ni1000     O1002   1.891       .  S
O1001     Ni1006   1.964       .  S
C1003      C5070   1.435       .  S
C1003      O1004   1.256       .  A
O1008     Ni1014   1.888       .  S
O1008      C1029   1.258       .  A
O1009     Ni1032   1.886       .  S
O1009      C1018   1.252       .  A
O1010     Ni1014   1.890       .  S
O1010     Ni1032   1.869       .  S
O1010     Ni1026   1.921       .  S
O1010      H1033   0.966       .  S
C1011      C1534   1.472       .  S
C1011      O1028   1.271       .  A
C1011      O1020   1.290       .  A
O1012     Ni1031   1.901       .  S
O1012      C1018   1.258       .  A
O1013     Ni1031   1.872       .  S
O1013      C1015   1.254       .  A
Ni1014     O1017   1.906       .  S
Ni1014     O1019   1.899       .  S
C1015      C4049   1.473       .  S
C1015      O1025   1.273       .  A
O1016     Ni1032   1.884       .  S
O1016      C1022   1.267       .  A
O1017      C1022   1.279       .  A
C1018      C4865   1.450       .  S
O1019      C1021   1.263       .  A
O1020     Ni1031   1.956       .  S
C1021      C1518   1.469       .  S
C1021      O1027   1.269       .  A
C1022      C1969   1.452       .  S
H1023      O1024   0.967       .  S
O1024     Ni1032   1.931       .  S
O1024     Ni1026   1.857       .  S
O1024     Ni1031   1.879       .  S
O1025     Ni1026   1.961       .  S
Ni1026     O1030   1.866       .  S
Ni1026     O1028   1.876       .  S
O1027     Ni1032   1.928       .  S
C1029      C1617   1.421       .  S
C1029      O1030   1.256       .  A
O1034     Ni1040   1.917       .  S
O1034      C1055   1.274       .  A
O1035     Ni1058   1.882       .  S
O1035      C1044   1.266       .  A
O1036     Ni1040   1.904       .  S
O1036     Ni1058   1.911       .  S
O1036     Ni1052   1.909       .  S
O1036      H1059   0.967       .  S
C1037      C3025   1.461       .  S
C1037      O1054   1.276       .  A
C1037      O1046   1.277       .  A
O1038     Ni1057   1.903       .  S
O1038      C1044   1.267       .  A
O1039     Ni1057   1.910       .  S
O1039      C1041   1.265       .  A
Ni1040     O1043   1.907       .  S
Ni1040     O1045   1.906       .  S
C1041      C3841   1.495       .  S
C1041      O1051   1.271       .  A
O1042     Ni1058   1.907       .  S
O1042      C1048   1.259       .  A
O1043      C1048   1.259       .  A
C1044      C4561   1.436       .  S
O1045      C1047   1.276       .  A
O1046     Ni1057   1.896       .  S
C1047      C1646   1.501       .  S
C1047      O1053   1.293       .  A
C1048      C1486   1.465       .  S
H1049      O1050   0.966       .  S
O1050     Ni1058   1.876       .  S
O1050     Ni1052   1.880       .  S
O1050     Ni1057   1.887       .  S
O1051     Ni1052   1.944       .  S
Ni1052     O1056   1.869       .  S
Ni1052     O1054   1.911       .  S
O1053     Ni1058   1.997       .  S
C1055      C1502   1.470       .  S
C1055      O1056   1.261       .  A
N1060      C1064   1.349       .  A
N1060      C1061   1.375       .  A
N1060      C4673   1.466       .  S
C1061      C1062   1.422       .  A
C1061      C1537   1.470       .  S
C1062      C1063   1.423       .  A
C1062      C3937   1.568       .  S
C1063      C1064   1.407       .  A
C1063      C3105   1.470       .  S
C1064      C1470   1.523       .  S
N1065      C1069   1.355       .  A
N1065      C1066   1.350       .  A
N1065      C1729   1.452       .  S
C1066      C1067   1.417       .  A
C1066      C1454   1.511       .  S
C1067      C1068   1.425       .  A
C1067      C2753   1.481       .  S
C1068      C1069   1.394       .  A
C1068      C4705   1.550       .  S
C1069      C1438   1.455       .  S
N1070      C1074   1.344       .  A
N1070      C1071   1.343       .  A
N1070      C3089   1.444       .  S
C1071      C1072   1.392       .  A
C1071      C1422   1.473       .  S
C1072      C1073   1.380       .  A
C1072      C1745   1.446       .  S
C1073      C1074   1.385       .  A
C1073      C4177   1.507       .  S
C1074      C1569   1.433       .  S
O1075     Ni1081   1.895       .  S
O1075      C1096   1.263       .  A
O1076     Ni1099   1.854       .  S
O1076      C1085   1.260       .  A
O1077     Ni1081   1.896       .  S
O1077     Ni1099   1.872       .  S
O1077     Ni1093   1.935       .  S
O1077      H1100   0.966       .  S
C1078      C1425   1.471       .  S
C1078      O1095   1.281       .  A
C1078      O1087   1.282       .  A
O1079     Ni1098   1.923       .  S
O1079      C1085   1.275       .  A
O1080     Ni1098   1.920       .  S
O1080      C1082   1.268       .  A
Ni1081     O1084   1.935       .  S
Ni1081     O1086   1.901       .  S
C1082      C1473   1.517       .  S
C1082      O1092   1.281       .  A
O1083     Ni1099   1.916       .  S
O1083      C1089   1.276       .  A
O1084      C1089   1.281       .  A
C1085      C3438   1.443       .  S
O1086      C1088   1.263       .  A
O1087     Ni1098   1.915       .  S
C1088      C1777   1.514       .  S
C1088      O1094   1.275       .  A
C1089      C4785   1.479       .  S
H1090      O1091   0.966       .  S
O1091     Ni1099   1.894       .  S
O1091     Ni1093   1.872       .  S
O1091     Ni1098   1.875       .  S
O1092     Ni1093   1.964       .  S
Ni1093     O1097   1.899       .  S
Ni1093     O1095   1.923       .  S
O1094     Ni1099   1.962       .  S
C1096      C1441   1.444       .  S
C1096      O1097   1.263       .  A
N1101      C1105   1.340       .  A
N1101      C1102   1.350       .  A
N1101      C4161   1.449       .  S
C1102      C1103   1.389       .  A
C1102      C1406   1.439       .  S
C1103      C1104   1.394       .  A
C1103      C2593   1.513       .  S
C1104      C1105   1.394       .  A
C1104      C4961   1.456       .  S
C1105      C1553   1.477       .  S
N1106      C1110   1.361       .  A
N1106      C1107   1.367       .  A
N1106      C3233   1.501       .  S
C1107      C1108   1.420       .  A
C1107      C1390   1.455       .  S
C1108      C1109   1.466       .  A
C1108      C1761   1.592       .  S
C1109      C1110   1.446       .  A
C1109      C4193   1.556       .  S
C1110      C1374   1.501       .  S
N1111      C1115   1.341       .  A
N1111      C1112   1.346       .  A
N1111      C2577   1.436       .  S
C1112      C1113   1.381       .  A
C1112      C1505   1.454       .  S
C1113      C1114   1.382       .  A
C1113      C3665   1.472       .  S
C1114      C1115   1.382       .  A
C1114      C3249   1.470       .  S
C1115      C1361   1.459       .  S
O1116     Ni1122   1.900       .  S
O1116      C1137   1.266       .  A
O1117     Ni1140   1.877       .  S
O1117      C1126   1.263       .  A
O1118     Ni1122   1.876       .  S
O1118     Ni1140   1.866       .  S
O1118     Ni1134   1.905       .  S
O1118      H1141   0.967       .  S
C1119      C1409   1.438       .  S
C1119      O1136   1.274       .  A
C1119      O1128   1.281       .  A
O1120     Ni1139   1.903       .  S
O1120      C1126   1.265       .  A
O1121     Ni1139   1.891       .  S
O1121      C1123   1.264       .  A
Ni1122     O1125   1.913       .  S
Ni1122     O1127   1.914       .  S
C1123      C1377   1.501       .  S
C1123      O1133   1.284       .  A
O1124     Ni1140   1.895       .  S
O1124      C1130   1.277       .  A
O1125      C1130   1.280       .  A
C1126      C4273   1.440       .  S
O1127      C1129   1.265       .  A
O1128     Ni1139   1.911       .  S
C1129      C2929   1.496       .  S
C1129      O1135   1.269       .  A
C1130      C3281   1.471       .  S
H1131      O1132   0.966       .  S
O1132     Ni1140   1.898       .  S
O1132     Ni1134   1.871       .  S
O1132     Ni1139   1.865       .  S
O1133     Ni1134   1.970       .  S
Ni1134     O1138   1.905       .  S
Ni1134     O1136   1.885       .  S
O1135     Ni1140   1.940       .  S
C1137      C1358   1.471       .  S
C1137      O1138   1.271       .  A
N1142      C1146   1.372       .  A
N1142      C1143   1.356       .  A
N1142      C3649   1.473       .  S
C1143      C1144   1.426       .  A
C1143      C1342   1.523       .  S
C1144      C1145   1.430       .  A
C1144      C1697   1.486       .  S
C1145      C1146   1.409       .  A
C1145      C4449   1.573       .  S
C1146      C1489   1.462       .  S
N1147      C1151   1.346       .  A
N1147      C1148   1.367       .  A
N1147      C2721   1.464       .  S
C1148      C1149   1.422       .  A
C1148      C1326   1.476       .  S
C1149      C1150   1.486       .  A
C1149      C3265   1.606       .  S
C1150      C1151   1.420       .  A
C1150      C3681   1.528       .  S
C1151      C1310   1.525       .  S
N1152      C1156   1.349       .  A
N1152      C1153   1.344       .  A
N1152      C1678   1.448       .  S
C1153      C1154   1.392       .  A
C1153      C1521   1.475       .  S
C1154      C1155   1.399       .  A
C1154      C4689   1.467       .  S
C1155      C1156   1.391       .  A
C1155      C2737   1.510       .  S
C1156      C1297   1.446       .  S
O1157     Ni1163   1.913       .  S
O1157      C1178   1.271       .  A
O1158     Ni1181   1.888       .  S
O1158      C1167   1.263       .  A
O1159     Ni1163   1.882       .  S
O1159     Ni1181   1.875       .  S
O1159     Ni1175   1.936       .  S
O1159      H1182   0.966       .  S
C1160      C1313   1.510       .  S
C1160      O1177   1.293       .  A
C1160      O1169   1.279       .  A
O1161     Ni1180   1.895       .  S
O1161      C1167   1.260       .  A
O1162     Ni1180   1.900       .  S
O1162      C1164   1.263       .  A
Ni1163     O1166   1.941       .  S
Ni1163     O1168   1.931       .  S
C1164      C1345   1.534       .  S
C1164      O1174   1.289       .  A
O1165     Ni1181   1.954       .  S
O1165      C1171   1.287       .  A
O1166      C1171   1.285       .  A
C1167      C1294   1.444       .  S
O1168      C1170   1.270       .  A
O1169     Ni1180   1.925       .  S
C1170      C2769   1.527       .  S
C1170      O1176   1.280       .  A
C1171      C1905   1.509       .  S
H1172      O1173   0.966       .  S
O1173     Ni1181   1.945       .  S
O1173     Ni1175   1.884       .  S
O1173     Ni1180   1.885       .  S
O1174     Ni1175   2.000       .  S
Ni1175     O1179   1.908       .  S
Ni1175     O1177   1.981       .  S
O1176     Ni1181   1.970       .  S
C1178      C3758   1.455       .  S
C1178      O1179   1.276       .  A
O1183     Ni1189   1.908       .  S
O1183      C1204   1.268       .  A
O1184     Ni1207   1.894       .  S
O1184      C1193   1.266       .  A
O1185     Ni1189   1.884       .  S
O1185     Ni1207   1.891       .  S
O1185     Ni1201   1.907       .  S
O1185      H1208   0.967       .  S
C1186      C2849   1.437       .  S
C1186      O1203   1.276       .  A
C1186      O1195   1.279       .  A
O1187     Ni1206   1.896       .  S
O1187      C1193   1.264       .  A
O1188     Ni1206   1.901       .  S
O1188      C1190   1.264       .  A
Ni1189     O1192   1.914       .  S
Ni1189     O1194   1.910       .  S
C1190      C3361   1.504       .  S
C1190      O1200   1.283       .  A
O1191     Ni1207   1.897       .  S
O1191      C1197   1.275       .  A
O1192      C1197   1.280       .  A
C1193      C1841   1.442       .  S
O1194      C1196   1.264       .  A
O1195     Ni1206   1.893       .  S
C1196      C1457   1.529       .  S
C1196      O1202   1.280       .  A
C1197      C1393   1.453       .  S
H1198      O1199   0.966       .  S
O1199     Ni1207   1.900       .  S
O1199     Ni1201   1.888       .  S
O1199     Ni1206   1.878       .  S
O1200     Ni1201   1.973       .  S
Ni1201     O1205   1.919       .  S
Ni1201     O1203   1.904       .  S
O1202     Ni1207   1.974       .  S
C1204      C1329   1.486       .  S
C1204      O1205   1.270       .  A
O1209     Ni1217   1.903       .  S
O1209      C1219   1.281       .  A
O1210     Ni1217   1.898   1_655  S
O1210      C1220   1.276       .  A
O1211     Ni1217   1.867       .  S
O1211      C1221   1.275       .  A
O1212     Ni1217   1.875   1_655  S
O1212      C1222   1.270       .  A
O1213     Ni1218   1.925   1_655  S
O1213      C1222   1.285       .  A
O1214     Ni1218   1.930       .  S
O1214      C1221   1.283       .  A
O1215     Ni1218   1.893   1_655  S
O1215      C1220   1.276       .  A
O1216     Ni1218   1.894       .  S
O1216      C1219   1.274       .  A
Ni1217    Ni1218   2.398       .  S
C1219      C4609   1.453       .  S
C1220      C4401   1.441       .  S
C1221      C4529   1.469       .  S
C1222      C4318   1.447       .  S
O1223     Ni1231   1.897   1_655  S
O1223      C1233   1.275       .  A
O1224     Ni1231   1.877       .  S
O1224      C1234   1.277       .  A
O1225     Ni1231   1.880   1_655  S
O1225      C1235   1.272       .  A
O1226     Ni1231   1.891       .  S
O1226      C1236   1.276       .  A
O1227     Ni1232   1.941       .  S
O1227      C1236   1.287       .  A
O1228     Ni1232   1.931   1_655  S
O1228      C1235   1.285       .  A
O1229     Ni1232   1.877       .  S
O1229      C1234   1.269       .  A
O1230     Ni1232   1.870   1_655  S
O1230      C1233   1.275       .  A
Ni1231    Ni1232   2.395       .  S
C1233      C1889   1.436       .  S
C1234      C2017   1.420       .  S
C1235      C1825   1.475       .  S
C1236      C1950   1.484       .  S
O1237     Ni1245   1.879       .  S
O1237      C1247   1.274       .  A
O1238     Ni1245   1.882   1_556  S
O1238      C1248   1.274       .  A
O1239     Ni1245   1.893   1_556  S
O1239      C1249   1.278       .  A
O1240     Ni1245   1.886       .  S
O1240      C1250   1.277       .  A
O1241     Ni1246   1.916       .  S
O1241      C1250   1.281       .  A
O1242     Ni1246   1.923   1_556  S
O1242      C1249   1.283       .  A
O1243     Ni1246   1.872   1_556  S
O1243      C1248   1.272       .  A
O1244     Ni1246   1.864       .  S
O1244      C1247   1.270       .  A
Ni1245    Ni1246   2.399       .  S
C1247      C3502   1.410       .  S
C1248      C3345   1.423       .  S
C1249      C3425   1.479       .  S
C1250      C3585   1.471       .  S
O1251     Ni1259   1.894       .  S
O1251      C1261   1.275       .  A
O1252     Ni1259   1.899   1_545  S
O1252      C1262   1.277       .  A
O1253     Ni1259   1.898   1_545  S
O1253      C1263   1.278       .  A
O1254     Ni1259   1.898       .  S
O1254      C1264   1.277       .  A
O1255     Ni1260   1.857       .  S
O1255      C1264   1.269       .  A
O1256     Ni1260   1.858   1_545  S
O1256      C1263   1.272       .  A
O1257     Ni1260   1.929   1_545  S
O1257      C1262   1.283       .  A
O1258     Ni1260   1.925       .  S
O1258      C1261   1.285       .  A
Ni1259    Ni1260   2.392       .  S
C1261      C2833   1.483       .  S
C1262      C2990   1.473       .  S
C1263      C3073   1.457       .  S
C1264      C2913   1.422       .  S
O1265     Ni1273   1.906   1_556  S
O1265      C1275   1.280       .  A
O1266     Ni1273   1.917       .  S
O1266      C1276   1.282       .  A
O1267     Ni1273   1.912   1_556  S
O1267      C1277   1.279       .  A
O1268     Ni1273   1.915       .  S
O1268      C1278   1.280       .  A
O1269     Ni1274   1.932       .  S
O1269      C1278   1.284       .  A
O1270     Ni1274   1.929   1_556  S
O1270      C1277   1.283       .  A
O1271     Ni1274   1.911       .  S
O1271      C1276   1.279       .  A
O1272     Ni1274   1.899   1_556  S
O1272      C1275   1.277       .  A
Ni1273    Ni1274   2.391       .  S
C1275      C3809   1.460       .  S
C1276      C4017   1.477       .  S
C1277      C3889   1.475       .  S
C1278      C4097   1.480       .  S
O1279     Ni1287   1.863   1_545  S
O1279      C1289   1.271       .  A
O1280     Ni1287   1.857       .  S
O1280      C1290   1.269       .  A
O1281     Ni1287   1.919       .  S
O1281      C1291   1.284       .  A
O1282     Ni1287   1.916   1_545  S
O1282      C1292   1.283       .  A
O1283     Ni1288   1.893   1_545  S
O1283      C1292   1.275       .  A
O1284     Ni1288   1.896       .  S
O1284      C1291   1.276       .  A
O1285     Ni1288   1.895       .  S
O1285      C1290   1.276       .  A
O1286     Ni1288   1.898   1_545  S
O1286      C1289   1.277       .  A
Ni1287    Ni1288   2.395       .  S
C1289      C5118   1.428       .  S
C1290      C4910   1.420       .  S
C1291      C4833   1.483       .  S
C1292      C5041   1.480       .  S
C1293      C1294   1.399       .  A
C1293      C1298   1.391       .  A
C1293      H1300   1.085       .  S
C1294      C1295   1.413       .  A
C1295      C1296   1.383       .  A
C1295      C1302   1.512       .  S
C1296      C1297   1.393       .  A
C1296      H1301   1.083       .  S
C1297      C1298   1.409       .  A
C1298      C1299   1.507       .  S
C1299      H1303   1.110       .  S
C1299      H1304   1.110       .  S
C1299      H1305   1.108       .  S
C1302      H1306   1.109       .  S
C1302      H1307   1.111       .  S
C1302      H1308   1.111       .  S
C1309      C1310   1.404       .  A
C1309      C1314   1.412       .  A
C1309      H1316   1.082       .  S
C1310      C1311   1.424       .  A
C1311      C1312   1.421       .  A
C1311      C1318   1.504       .  S
C1312      C1313   1.407       .  A
C1312      H1317   1.084       .  S
C1313      C1314   1.417       .  A
C1314      C1315   1.501       .  S
C1315      H1319   1.111       .  S
C1315      H1320   1.109       .  S
C1315      H1321   1.110       .  S
C1318      H1322   1.110       .  S
C1318      H1323   1.107       .  S
C1318      H1324   1.110       .  S
C1325      C1326   1.405       .  A
C1325      C1330   1.409       .  A
C1325      H1332   1.084       .  S
C1326      C1327   1.407       .  A
C1327      C1328   1.389       .  A
C1327      C1334   1.504       .  S
C1328      C1329   1.407       .  A
C1328      H1333   1.084       .  S
C1329      C1330   1.417       .  A
C1330      C1331   1.506       .  S
C1331      H1335   1.111       .  S
C1331      H1336   1.111       .  S
C1331      H1337   1.110       .  S
C1334      H1338   1.109       .  S
C1334      H1339   1.110       .  S
C1334      H1340   1.103       .  S
C1341      C1342   1.397       .  A
C1341      C1346   1.410       .  A
C1341      H1348   1.082       .  S
C1342      C1343   1.420       .  A
C1343      C1344   1.430       .  A
C1343      C1350   1.502       .  S
C1344      C1345   1.415       .  A
C1344      H1349   1.083       .  S
C1345      C1346   1.434       .  A
C1346      C1347   1.508       .  S
C1347      H1351   1.111       .  S
C1347      H1352   1.104       .  S
C1347      H1353   1.109       .  S
C1350      H1354   1.105       .  S
C1350      H1355   1.110       .  S
C1350      H1356   1.111       .  S
C1357      C1358   1.410       .  A
C1357      C1362   1.387       .  A
C1357      H1364   1.084       .  S
C1358      C1359   1.413       .  A
C1359      C1360   1.397       .  A
C1359      C1366   1.507       .  S
C1360      C1361   1.399       .  A
C1360      H1365   1.083       .  S
C1361      C1362   1.403       .  A
C1362      C1363   1.510       .  S
C1363      H1367   1.110       .  S
C1363      H1368   1.106       .  S
C1363      H1369   1.110       .  S
C1366      H1370   1.111       .  S
C1366      H1371   1.109       .  S
C1366      H1372   1.111       .  S
C1373      C1374   1.408       .  A
C1373      C1378   1.412       .  A
C1373      H1380   1.081       .  S
C1374      C1375   1.411       .  A
C1375      C1376   1.411       .  A
C1375      C1382   1.505       .  S
C1376      C1377   1.412       .  A
C1376      H1381   1.084       .  S
C1377      C1378   1.413       .  A
C1378      C1379   1.503       .  S
C1379      H1383   1.111       .  S
C1379      H1384   1.110       .  S
C1379      H1385   1.105       .  S
C1382      H1386   1.110       .  S
C1382      H1387   1.104       .  S
C1382      H1388   1.111       .  S
C1389      C1390   1.399       .  A
C1389      C1394   1.394       .  A
C1389      H1396   1.082       .  S
C1390      C1391   1.406       .  A
C1391      C1392   1.394       .  A
C1391      C1398   1.507       .  S
C1392      C1393   1.402       .  A
C1392      H1397   1.085       .  S
C1393      C1394   1.408       .  A
C1394      C1395   1.509       .  S
C1395      H1399   1.111       .  S
C1395      H1400   1.111       .  S
C1395      H1401   1.109       .  S
C1398      H1402   1.109       .  S
C1398      H1403   1.110       .  S
C1398      H1404   1.110       .  S
C1405      C1406   1.396       .  A
C1405      C1410   1.385       .  A
C1405      H1412   1.085       .  S
C1406      C1407   1.405       .  A
C1407      C1408   1.391       .  A
C1407      C1414   1.507       .  S
C1408      C1409   1.400       .  A
C1408      H1413   1.085       .  S
C1409      C1410   1.406       .  A
C1410      C1411   1.505       .  S
C1411      H1415   1.111       .  S
C1411      H1416   1.111       .  S
C1411      H1417   1.108       .  S
C1414      H1418   1.110       .  S
C1414      H1419   1.108       .  S
C1414      H1420   1.110       .  S
C1421      C1422   1.407       .  A
C1421      C1426   1.402       .  A
C1421      H1428   1.084       .  S
C1422      C1423   1.407       .  A
C1423      C1424   1.398       .  A
C1423      C1430   1.507       .  S
C1424      C1425   1.406       .  A
C1424      H1429   1.085       .  S
C1425      C1426   1.408       .  A
C1426      C1427   1.506       .  S
C1427      H1431   1.111       .  S
C1427      H1432   1.111       .  S
C1427      H1433   1.110       .  S
C1430      H1434   1.110       .  S
C1430      H1435   1.106       .  S
C1430      H1436   1.110       .  S
C1437      C1438   1.393       .  A
C1437      C1442   1.379       .  A
C1437      H1444   1.084       .  S
C1438      C1439   1.415       .  A
C1439      C1440   1.397       .  A
C1439      C1446   1.505       .  S
C1440      C1441   1.397       .  A
C1440      H1445   1.085       .  S
C1441      C1442   1.409       .  A
C1442      C1443   1.507       .  S
C1443      H1447   1.111       .  S
C1443      H1448   1.108       .  S
C1443      H1449   1.110       .  S
C1446      H1450   1.110       .  S
C1446      H1451   1.107       .  S
C1446      H1452   1.110       .  S
C1453      C1454   1.399       .  A
C1453      C1458   1.413       .  A
C1453      H1460   1.084       .  S
C1454      C1455   1.418       .  A
C1455      C1456   1.421       .  A
C1455      C1462   1.504       .  S
C1456      C1457   1.414       .  A
C1456      H1461   1.084       .  S
C1457      C1458   1.433       .  A
C1458      C1459   1.510       .  S
C1459      H1463   1.111       .  S
C1459      H1464   1.110       .  S
C1459      H1465   1.110       .  S
C1462      H1466   1.108       .  S
C1462      H1467   1.110       .  S
C1462      H1468   1.110       .  S
C1469      C1470   1.407       .  A
C1469      C1474   1.418       .  A
C1469      H1476   1.083       .  S
C1470      C1471   1.422       .  A
C1471      C1472   1.416       .  A
C1471      C1478   1.504       .  S
C1472      C1473   1.407       .  A
C1472      H1477   1.084       .  S
C1473      C1474   1.425       .  A
C1474      C1475   1.509       .  S
C1475      H1479   1.111       .  S
C1475      H1480   1.109       .  S
C1475      H1481   1.110       .  S
C1478      H1482   1.110       .  S
C1478      H1483   1.106       .  S
C1478      H1484   1.110       .  S
C1485      C1486   1.403       .  A
C1485      C1490   1.387       .  A
C1485      H1492   1.085       .  S
C1486      C1487   1.412       .  A
C1487      C1488   1.399       .  A
C1487      C1494   1.507       .  S
C1488      C1489   1.403       .  A
C1488      H1493   1.084       .  S
C1489      C1490   1.409       .  A
C1490      C1491   1.507       .  S
C1491      H1495   1.111       .  S
C1491      H1496   1.110       .  S
C1491      H1497   1.105       .  S
C1494      H1498   1.108       .  S
C1494      H1499   1.111       .  S
C1494      H1500   1.111       .  S
C1501      C1502   1.404       .  A
C1501      C1506   1.391       .  A
C1501      H1508   1.084       .  S
C1502      C1503   1.421       .  A
C1503      C1504   1.391       .  A
C1503      C1510   1.510       .  S
C1504      C1505   1.393       .  A
C1504      H1509   1.083       .  S
C1505      C1506   1.406       .  A
C1506      C1507   1.506       .  S
C1507      H1511   1.111       .  S
C1507      H1512   1.109       .  S
C1507      H1513   1.108       .  S
C1510      H1514   1.105       .  S
C1510      H1515   1.110       .  S
C1510      H1516   1.111       .  S
C1517      C1518   1.401       .  A
C1517      C1522   1.403       .  A
C1517      H1524   1.085       .  S
C1518      C1519   1.413       .  A
C1519      C1520   1.400       .  A
C1519      C1526   1.507       .  S
C1520      C1521   1.399       .  A
C1520      H1525   1.082       .  S
C1521      C1522   1.412       .  A
C1522      C1523   1.506       .  S
C1523      H1527   1.110       .  S
C1523      H1528   1.110       .  S
C1523      H1529   1.109       .  S
C1526      H1530   1.110       .  S
C1526      H1531   1.109       .  S
C1526      H1532   1.111       .  S
C1533      C1534   1.399       .  A
C1533      C1538   1.401       .  A
C1533      H1540   1.084       .  S
C1534      C1535   1.424       .  A
C1535      C1536   1.393       .  A
C1535      C1542   1.510       .  S
C1536      C1537   1.393       .  A
C1536      H1541   1.085       .  S
C1537      C1538   1.416       .  A
C1538      C1539   1.506       .  S
C1539      H1543   1.110       .  S
C1539      H1544   1.109       .  S
C1539      H1545   1.110       .  S
C1542      H1546   1.104       .  S
C1542      H1547   1.111       .  S
C1542      H1548   1.111       .  S
C1549      C1550   1.404       .  A
C1549      C1554   1.402       .  A
C1549      H1556   1.085       .  S
C1550      C1551   1.420       .  A
C1551      C1552   1.407       .  A
C1551      C1558   1.507       .  S
C1552      C1553   1.400       .  A
C1552      H1557   1.084       .  S
C1553      C1554   1.414       .  A
C1554      C1555   1.509       .  S
C1555      H1559   1.110       .  S
C1555      H1560   1.107       .  S
C1555      H1561   1.110       .  S
C1558      H1562   1.110       .  S
C1558      H1563   1.109       .  S
C1558      H1564   1.111       .  S
C1565      C1566   1.411       .  A
C1565      C1570   1.380       .  A
C1565      H1572   1.084       .  S
C1566      C1567   1.416       .  A
C1567      C1568   1.391       .  A
C1567      C1574   1.510       .  S
C1568      C1569   1.396       .  A
C1568      H1573   1.084       .  S
C1569      C1570   1.396       .  A
C1570      C1571   1.509       .  S
C1571      H1575   1.110       .  S
C1571      H1576   1.109       .  S
C1571      H1577   1.110       .  S
C1574      H1578   1.110       .  S
C1574      H1579   1.105       .  S
C1574      H1580   1.111       .  S
C1581      C1582   1.394       .  A
C1581      C1586   1.395       .  A
C1581      H1588   1.085       .  S
C1582      C1583   1.410       .  A
C1583      C1584   1.382       .  A
C1583      C1590   1.508       .  S
C1584      C1585   1.394       .  A
C1584      H1589   1.083       .  S
C1585      C1586   1.414       .  A
C1586      C1587   1.505       .  S
C1587      H1591   1.110       .  S
C1587      H1592   1.108       .  S
C1587      H1593   1.110       .  S
C1590      H1594   1.111       .  S
C1590      H1595   1.109       .  S
C1590      H1596   1.111       .  S
C1597      C1598   1.396       .  A
C1597      C1602   1.397       .  A
C1597      H1604   1.084       .  S
C1598      C1599   1.404       .  A
C1599      C1600   1.381       .  A
C1599      C1606   1.512       .  S
C1600      C1601   1.409       .  A
C1600      H1605   1.084       .  S
C1601      C1602   1.418       .  A
C1602      C1603   1.507       .  S
C1603      H1607   1.111       .  S
C1603      H1608   1.109       .  S
C1603      H1609   1.110       .  S
C1606      H1610   1.111       .  S
C1606      H1611   1.107       .  S
C1606      H1612   1.110       .  S
C1613      C1614   1.387       .  A
C1613      C1618   1.376       .  A
C1613      H1620   1.084       .  S
C1614      C1615   1.406       .  A
C1615      C1616   1.385       .  A
C1615      C1622   1.507       .  S
C1616      C1617   1.392       .  A
C1616      H1621   1.085       .  S
C1617      C1618   1.412       .  A
C1618      C1619   1.508       .  S
C1619      H1623   1.111       .  S
C1619      H1624   1.107       .  S
C1619      H1625   1.108       .  S
C1622      H1626   1.110       .  S
C1622      H1627   1.109       .  S
C1622      H1628   1.110       .  S
C1629      C1630   1.400       .  A
C1629      C1634   1.395       .  A
C1629      H1636   1.084       .  S
C1630      C1631   1.408       .  A
C1631      C1632   1.395       .  A
C1631      C1638   1.507       .  S
C1632      C1633   1.407       .  A
C1632      H1637   1.085       .  S
C1633      C1634   1.405       .  A
C1634      C1635   1.503       .  S
C1635      H1639   1.110       .  S
C1635      H1640   1.107       .  S
C1635      H1641   1.107       .  S
C1638      H1642   1.110       .  S
C1638      H1643   1.107       .  S
C1638      H1644   1.110       .  S
C1645      C1646   1.405       .  A
C1645      C1650   1.402       .  A
C1645      H1652   1.085       .  S
C1646      C1647   1.416       .  A
C1647      C1648   1.420       .  A
C1647      C1654   1.504       .  S
C1648      C1649   1.410       .  A
C1648      H1653   1.084       .  S
C1649      C1650   1.417       .  A
C1650      C1651   1.507       .  S
C1651      H1655   1.111       .  S
C1651      H1656   1.104       .  S
C1651      H1657   1.110       .  S
C1654      H1658   1.110       .  S
C1654      H1659   1.111       .  S
C1654      H1660   1.111       .  S
C1661      C1662   1.400       .  A
C1661      C1666   1.395       .  A
C1661      H1668   1.082       .  S
C1662      C1663   1.412       .  A
C1663      C1664   1.400       .  A
C1663      C1670   1.507       .  S
C1664      C1665   1.401       .  A
C1664      H1669   1.085       .  S
C1665      C1666   1.405       .  A
C1666      C1667   1.501       .  S
C1667      H1671   1.111       .  S
C1667      H1672   1.110       .  S
C1667      H1673   1.110       .  S
C1670      H1674   1.108       .  S
C1670      H1675   1.110       .  S
C1670      H1676   1.111       .  S
C1677      C1678   1.400       .  A
C1677      C1682   1.409       .  A
C1677      H1684   1.082       .  S
C1678      C1679   1.415       .  A
C1679      C1680   1.408       .  A
C1679      C1686   1.505       .  S
C1680      C1681   1.404       .  A
C1680      H1685   1.084       .  S
C1681      C1682   1.420       .  A
C1682      C1683   1.507       .  S
C1683      H1687   1.111       .  S
C1683      H1688   1.111       .  S
C1683      H1689   1.107       .  S
C1686      H1690   1.110       .  S
C1686      H1691   1.107       .  S
C1686      H1692   1.110       .  S
C1693      C1694   1.412       .  A
C1693      C1698   1.405       .  A
C1693      H1700   1.079       .  S
C1694      C1695   1.434       .  A
C1695      C1696   1.412       .  A
C1695      C1702   1.510       .  S
C1696      C1697   1.397       .  A
C1696      H1701   1.084       .  S
C1697      C1698   1.411       .  A
C1698      C1699   1.506       .  S
C1699      H1703   1.110       .  S
C1699      H1704   1.108       .  S
C1699      H1705   1.110       .  S
C1702      H1706   1.109       .  S
C1702      H1707   1.106       .  S
C1702      H1708   1.111       .  S
C1709      C1710   1.404       .  A
C1709      C1714   1.411       .  A
C1709      H1716   1.084       .  S
C1710      C1711   1.421       .  A
C1711      C1712   1.408       .  A
C1711      C1718   1.508       .  S
C1712      C1713   1.403       .  A
C1712      H1717   1.085       .  S
C1713      C1714   1.419       .  A
C1714      C1715   1.506       .  S
C1715      H1719   1.111       .  S
C1715      H1720   1.110       .  S
C1715      H1721   1.106       .  S
C1718      H1722   1.110       .  S
C1718      H1723   1.107       .  S
C1718      H1724   1.111       .  S
C1725      C1726   1.412       .  A
C1725      C1730   1.408       .  A
C1725      H1732   1.082       .  S
C1726      C1727   1.429       .  A
C1727      C1728   1.413       .  A
C1727      C1734   1.508       .  S
C1728      C1729   1.400       .  A
C1728      H1733   1.083       .  S
C1729      C1730   1.412       .  A
C1730      C1731   1.505       .  S
C1731      H1735   1.110       .  S
C1731      H1736   1.108       .  S
C1731      H1737   1.110       .  S
C1734      H1738   1.107       .  S
C1734      H1739   1.110       .  S
C1734      H1740   1.111       .  S
C1741      C1742   1.407       .  A
C1741      C1746   1.384       .  A
C1741      H1748   1.084       .  S
C1742      C1743   1.404       .  A
C1743      C1744   1.397       .  A
C1743      C1750   1.504       .  S
C1744      C1745   1.402       .  A
C1744      H1749   1.084       .  S
C1745      C1746   1.405       .  A
C1746      C1747   1.510       .  S
C1747      H1751   1.110       .  S
C1747      H1752   1.111       .  S
C1747      H1753   1.107       .  S
C1750      H1754   1.110       .  S
C1750      H1755   1.109       .  S
C1750      H1756   1.111       .  S
C1757      C1758   1.433       .  A
C1757      C1762   1.450       .  A
C1757      H1764   1.081       .  S
C1758      C1759   1.441       .  A
C1759      C1760   1.453       .  A
C1759      C1766   1.503       .  S
C1760      C1761   1.425       .  A
C1760      H1765   1.083       .  S
C1761      C1762   1.430       .  A
C1762      C1763   1.502       .  S
C1763      H1767   1.111       .  S
C1763      H1768   1.108       .  S
C1763      H1769   1.108       .  S
C1766      H1770   1.110       .  S
C1766      H1771   1.103       .  S
C1766      H1772   1.110       .  S
C1773      C1774   1.407       .  A
C1773      C1778   1.416       .  A
C1773      H1780   1.082       .  S
C1774      C1775   1.412       .  A
C1775      C1776   1.409       .  A
C1775      C1782   1.505       .  S
C1776      C1777   1.414       .  A
C1776      H1781   1.084       .  S
C1777      C1778   1.422       .  A
C1778      C1779   1.506       .  S
C1779      H1783   1.111       .  S
C1779      H1784   1.109       .  S
C1779      H1785   1.110       .  S
C1782      H1786   1.107       .  S
C1782      H1787   1.110       .  S
C1782      H1788   1.110       .  S
C1789      C1790   1.428       .  A
C1789      C1794   1.451       .  A
C1789      H1796   1.079       .  S
C1790      C1791   1.435       .  A
C1791      C1792   1.446       .  A
C1791      C1798   1.501       .  S
C1792      C1793   1.431       .  A
C1792      H1797   1.078       .  S
C1793      C1794   1.443       .  A
C1794      C1795   1.506       .  S
C1795      H1799   1.111       .  S
C1795      H1800   1.111       .  S
C1795      H1801   1.102       .  S
C1798      H1802   1.106       .  S
C1798      H1803   1.110       .  S
C1798      H1804   1.111       .  S
C1805      C1806   1.422       .  A
C1805      C1810   1.447       .  A
C1805      H1812   1.077       .  S
C1806      C1807   1.439       .  A
C1807      C1808   1.458       .  A
C1807      C1814   1.503       .  S
C1808      C1809   1.431       .  A
C1808      H1813   1.075       .  S
C1809      C1810   1.446       .  A
C1810      C1811   1.508       .  S
C1811      H1815   1.110       .  S
C1811      H1816   1.102       .  S
C1811      H1817   1.110       .  S
C1814      H1818   1.111       .  S
C1814      H1819   1.107       .  S
C1814      H1820   1.110       .  S
C1821      C1822   1.389       .  A
C1821      C1826   1.385       .  A
C1821      H1828   1.079       .  S
C1822      C1823   1.409       .  A
C1823      C1824   1.408       .  A
C1823      C1830   1.505       .  S
C1824      C1825   1.408       .  A
C1824      H1829   1.084       .  S
C1825      C1826   1.421       .  A
C1826      C1827   1.512       .  S
C1827      H1831   1.111       .  S
C1827      H1832   1.110       .  S
C1827      H1833   1.103       .  S
C1830      H1834   1.111       .  S
C1830      H1835   1.108       .  S
C1830      H1836   1.111       .  S
C1837      C1838   1.407       .  A
C1837      C1842   1.390       .  A
C1837      H1844   1.079       .  S
C1838      C1839   1.408       .  A
C1839      C1840   1.394       .  A
C1839      C1846   1.506       .  S
C1840      C1841   1.400       .  A
C1840      H1845   1.085       .  S
C1841      C1842   1.399       .  A
C1842      C1843   1.507       .  S
C1843      H1847   1.111       .  S
C1843      H1848   1.110       .  S
C1843      H1849   1.110       .  S
C1846      H1850   1.107       .  S
C1846      H1851   1.110       .  S
C1846      H1852   1.110       .  S
C1853      C1854   1.401       .  A
C1853      C1858   1.394       .  A
C1853      H1860   1.073       .  S
C1854      C1855   1.414       .  A
C1855      C1856   1.401       .  A
C1855      C1862   1.507       .  S
C1856      C1857   1.401       .  A
C1856      H1861   1.084       .  S
C1857      C1858   1.406       .  A
C1858      C1859   1.507       .  S
C1859      H1863   1.111       .  S
C1859      H1864   1.110       .  S
C1859      H1865   1.110       .  S
C1862      H1866   1.109       .  S
C1862      H1867   1.110       .  S
C1862      H1868   1.110       .  S
C1869      C1870   1.407       .  A
C1869      C1874   1.394       .  A
C1869      H1876   1.079       .  S
C1870      C1871   1.417       .  A
C1871      C1872   1.402       .  A
C1871      C1878   1.507       .  S
C1872      C1873   1.398       .  A
C1872      H1877   1.084       .  S
C1873      C1874   1.410       .  A
C1874      C1875   1.507       .  S
C1875      H1879   1.110       .  S
C1875      H1880   1.111       .  S
C1875      H1881   1.104       .  S
C1878      H1882   1.107       .  S
C1878      H1883   1.110       .  S
C1878      H1884   1.111       .  S
C1885      C1886   1.396       .  A
C1885      C1890   1.393       .  A
C1885      H1892   1.085       .  S
C1886      C1887   1.414       .  A
C1887      C1888   1.377       .  A
C1887      C1894   1.513       .  S
C1888      C1889   1.392       .  A
C1888      H1893   1.086       .  S
C1889      C1890   1.407       .  A
C1890      C1891   1.501       .  S
C1891      H1895   1.111       .  S
C1891      H1896   1.110       .  S
C1891      H1897   1.109       .  S
C1894      H1898   1.102       .  S
C1894      H1899   1.094       .  S
C1894      H1900   1.111       .  S
C1901      C1902   1.409       .  A
C1901      C1906   1.419       .  A
C1901      H1908   1.083       .  S
C1902      C1903   1.414       .  A
C1903      C1904   1.411       .  A
C1903      C1910   1.503       .  S
C1904      C1905   1.409       .  A
C1904      H1909   1.084       .  S
C1905      C1906   1.419       .  A
C1906      C1907   1.505       .  S
C1907      H1911   1.111       .  S
C1907      H1912   1.110       .  S
C1907      H1913   1.110       .  S
C1910      H1914   1.110       .  S
C1910      H1915   1.106       .  S
C1910      H1916   1.110       .  S
C1917      C1918   1.403       .  A
C1917      C1922   1.407       .  A
C1917      H1924   1.084       .  S
C1918      C1919   1.412       .  A
C1919      C1920   1.409       .  A
C1919      C1926   1.504       .  S
C1920      C1921   1.404       .  A
C1920      H1925   1.084       .  S
C1921      C1922   1.416       .  A
C1922      C1923   1.507       .  S
C1923      H1927   1.110       .  S
C1923      H1928   1.111       .  S
C1923      H1929   1.108       .  S
C1926      H1930   1.110       .  S
C1926      H1931   1.110       .  S
C1926      H1932   1.111       .  S
C1933      C1934   1.399       .  A
C1933      C1938   1.419       .  A
C1933      H1940   1.083       .  S
C1934      C1935   1.417       .  A
C1935      C1936   1.424       .  A
C1935      C1942   1.505       .  S
C1936      C1937   1.417       .  A
C1936      H1941   1.077       .  S
C1937      C1938   1.445       .  A
C1938      C1939   1.507       .  S
C1939      H1943   1.111       .  S
C1939      H1944   1.094       .  S
C1939      H1945   1.110       .  S
C1942      H1946   1.110       .  S
C1942      H1947   1.107       .  S
C1942      H1948   1.111       .  S
C1949      C1950   1.409       .  A
C1949      C1954   1.397       .  A
C1949      H1956   1.085       .  S
C1950      C1951   1.414       .  A
C1951      C1952   1.408       .  A
C1951      C1958   1.506       .  S
C1952      C1953   1.404       .  A
C1952      H1957   1.084       .  S
C1953      C1954   1.406       .  A
C1954      C1955   1.508       .  S
C1955      H1959   1.110       .  S
C1955      H1960   1.111       .  S
C1955      H1961   1.108       .  S
C1958      H1962   1.109       .  S
C1958      H1963   1.111       .  S
C1958      H1964   1.111       .  S
C1965      C1966   1.394       .  A
C1965      C1970   1.392       .  A
C1965      H1972   1.084       .  S
C1966      C1967   1.409       .  A
C1967      C1968   1.386       .  A
C1967      C1974   1.506       .  S
C1968      C1969   1.399       .  A
C1968      H1973   1.085       .  S
C1969      C1970   1.418       .  A
C1970      C1971   1.511       .  S
C1971      H1975   1.111       .  S
C1971      H1976   1.109       .  S
C1971      H1977   1.111       .  S
C1974      H1978   1.107       .  S
C1974      H1979   1.110       .  S
C1974      H1980   1.110       .  S
C1981      C1982   1.401       .  A
C1981      C1986   1.416       .  A
C1981      H1988   1.084       .  S
C1982      C1983   1.412       .  A
C1983      C1984   1.402       .  A
C1983      C1990   1.508       .  S
C1984      C1985   1.412       .  A
C1984      H1989   1.076       .  S
C1985      C1986   1.431       .  A
C1986      C1987   1.507       .  S
C1987      H1991   1.107       .  S
C1987      H1992   1.111       .  S
C1987      H1993   1.110       .  S
C1990      H1994   1.107       .  S
C1990      H1995   1.110       .  S
C1990      H1996   1.110       .  S
C1997      C1998   1.406       .  A
C1997      C2002   1.417       .  A
C1997      H2004   1.084       .  S
C1998      C1999   1.418       .  A
C1999      C2000   1.415       .  A
C1999      C2006   1.506       .  S
C2000      C2001   1.407       .  A
C2000      H2005   1.084       .  S
C2001      C2002   1.420       .  A
C2002      C2003   1.505       .  S
C2003      H2007   1.111       .  S
C2003      H2008   1.106       .  S
C2003      H2009   1.110       .  S
C2006      H2010   1.110       .  S
C2006      H2011   1.108       .  S
C2006      H2012   1.111       .  S
C2013      C2014   1.397       .  A
C2013      C2018   1.385       .  A
C2013      H2020   1.085       .  S
C2014      C2015   1.409       .  A
C2015      C2016   1.383       .  A
C2015      C2022   1.505       .  S
C2016      C2017   1.394       .  A
C2016      H2021   1.086       .  S
C2017      C2018   1.402       .  A
C2018      C2019   1.508       .  S
C2019      H2023   1.111       .  S
C2019      H2024   1.110       .  S
C2019      H2025   1.110       .  S
C2022      H2026   1.103       .  S
C2022      H2027   1.111       .  S
C2022      H2028   1.111       .  S
C2029      C2030   1.410       .  A
C2029      C2034   1.409       .  A
C2029      H2036   1.084       .  S
C2030      C2031   1.430       .  A
C2031      C2032   1.399       .  A
C2031      C2038   1.512       .  S
C2032      C2033   1.393       .  A
C2032      H2037   1.085       .  S
C2033      C2034   1.412       .  A
C2034      C2035   1.504       .  S
C2035      H2039   1.110       .  S
C2035      H2040   1.110       .  S
C2035      H2041   1.107       .  S
C2038      H2042   1.111       .  S
C2038      H2043   1.109       .  S
C2038      H2044   1.111       .  S
C2045      C2046   1.402       .  A
C2045      C2050   1.404       .  A
C2045      H2052   1.084       .  S
C2046      C2047   1.403       .  A
C2047      C2048   1.391       .  A
C2047      C2054   1.508       .  S
C2048      C2049   1.404       .  A
C2048      H2053   1.080       .  S
C2049      C2050   1.409       .  A
C2050      C2051   1.504       .  S
C2051      H2055   1.111       .  S
C2051      H2056   1.110       .  S
C2051      H2057   1.109       .  S
C2054      H2058   1.110       .  S
C2054      H2059   1.108       .  S
C2054      H2060   1.111       .  S
C2061      C2062   1.406       .  A
C2061      C2066   1.383       .  A
C2061      H2068   1.084       .  S
C2062      C2063   1.414       .  A
C2063      C2064   1.404       .  A
C2063      C2070   1.506       .  S
C2064      C2065   1.406       .  A
C2064      H2069   1.084       .  S
C2065      C2066   1.407       .  A
C2066      C2067   1.505       .  S
C2067      H2071   1.111       .  S
C2067      H2072   1.107       .  S
C2067      H2073   1.103       .  S
C2070      H2074   1.110       .  S
C2070      H2075   1.109       .  S
C2070      H2076   1.111       .  S
C2077      C2078   1.420       .  A
C2077      C2082   1.462       .  A
C2077      H2084   1.084       .  S
C2078      C2079   1.451       .  A
C2079      C2080   1.448       .  A
C2079      C2086   1.500       .  S
C2080      C2081   1.415       .  A
C2080      H2085   1.082       .  S
C2081      C2082   1.468       .  A
C2082      C2083   1.510       .  S
C2083      H2087   1.111       .  S
C2083      H2088   1.106       .  S
C2083      H2089   1.110   1_455  S
C2086      H2090   1.106       .  S
C2086      H2091   1.108       .  S
C2086      H2092   1.111       .  S
C2093      C2094   1.403       .  A
C2093      C2098   1.396       .  A
C2093      H2100   1.084       .  S
C2094      C2095   1.418       .  A
C2095      C2096   1.395       .  A
C2095      C2102   1.510       .  S
C2096      C2097   1.399       .  A
C2096      H2101   1.085       .  S
C2097      C2098   1.410       .  A
C2098      C2099   1.507       .  S
C2099      H2103   1.110       .  S
C2099      H2104   1.108       .  S
C2099      H2105   1.111       .  S
C2102      H2106   1.110       .  S
C2102      H2107   1.108       .  S
C2102      H2108   1.111       .  S
C2109      C2110   1.415       .  A
C2109      C2114   1.409       .  A
C2109      H2116   1.084       .  S
C2110      C2111   1.416       .  A
C2111      C2112   1.422       .  A
C2111      C2118   1.503       .  S
C2112      C2113   1.413       .  A
C2112      H2117   1.083       .  S
C2113      C2114   1.412       .  A
C2114      C2115   1.508       .  S
C2115      H2119   1.111       .  S
C2115      H2120   1.111       .  S
C2115      H2121   1.107       .  S
C2118      H2122   1.111       .  S
C2118      H2123   1.110       .  S
C2118      H2124   1.111       .  S
C2125      C2126   1.408       .  A
C2125      C2130   1.426       .  A
C2125      H2132   1.082       .  S
C2126      C2127   1.431       .  A
C2127      C2128   1.430       .  A
C2127      C2134   1.505       .  S
C2128      C2129   1.411       .  A
C2128      H2133   1.084       .  S
C2129      C2130   1.434       .  A
C2130      C2131   1.509       .  S
C2131      H2135   1.111       .  S
C2131      H2136   1.109       .  S
C2131      H2137   1.111       .  S
C2134      H2138   1.110       .  S
C2134      H2139   1.107       .  S
C2134      H2140   1.110       .  S
C2141      C2142   1.397       .  A
C2141      C2146   1.403       .  A
C2141      H2148   1.084       .  S
C2142      C2143   1.416       .  A
C2143      C2144   1.400       .  A
C2143      C2150   1.508       .  S
C2144      C2145   1.397       .  A
C2144      H2149   1.084       .  S
C2145      C2146   1.417       .  A
C2146      C2147   1.506       .  S
C2147      H2151   1.110       .  S
C2147      H2152   1.110       .  S
C2147      H2153   1.109       .  S
C2150      H2154   1.111       .  S
C2150      H2155   1.109       .  S
C2150      H2156   1.111       .  S
C2157      C2158   1.406       .  A
C2157      C2162   1.400       .  A
C2157      H2164   1.085       .  S
C2158      C2159   1.412       .  A
C2159      C2160   1.400       .  A
C2159      C2166   1.507       .  S
C2160      C2161   1.401       .  A
C2160      H2165   1.083       .  S
C2161      C2162   1.408       .  A
C2162      C2163   1.505       .  S
C2163      H2167   1.111       .  S
C2163      H2168   1.107       .  S
C2163      H2169   1.106       .  S
C2166      H2170   1.111       .  S
C2166      H2171   1.110       .  S
C2166      H2172   1.111       .  S
C2173      C2174   1.405       .  A
C2173      C2178   1.403       .  A
C2173      H2180   1.084       .  S
C2174      C2175   1.408       .  A
C2175      C2176   1.394       .  A
C2175      C2182   1.508       .  S
C2176      C2177   1.406       .  A
C2176      H2181   1.085       .  S
C2177      C2178   1.408       .  A
C2178      C2179   1.503       .  S
C2179      H2183   1.111       .  S
C2179      H2184   1.105       .  S
C2179      H2185   1.110       .  S
C2182      H2186   1.111       .  S
C2182      H2187   1.107       .  S
C2182      H2188   1.111       .  S
C2189      C2190   1.401       .  A
C2189      C2194   1.396       .  A
C2189      H2196   1.085       .  S
C2190      C2191   1.417       .  A
C2191      C2192   1.390       .  A
C2191      C2198   1.502       .  S
C2192      C2193   1.393       .  A
C2192      H2197   1.084       .  S
C2193      C2194   1.417       .  A
C2194      C2195   1.511       .  S
C2195      H2199   1.111       .  S
C2195      H2200   1.111       .  S
C2195      H2201   1.108       .  S
C2198      H2202   1.108       .  S
C2198      H2203   1.104       .  S
C2198      H2204   1.111       .  S
C2205      C2206   1.409       .  A
C2205      C2210   1.421       .  A
C2205      H2212   1.084   1_455  S
C2206      C2207   1.418       .  A
C2207      C2208   1.417       .  A
C2207      C2214   1.506       .  S
C2208      C2209   1.409       .  A
C2208      H2213   1.082       .  S
C2209      C2210   1.422       .  A
C2210      C2211   1.503   1_455  S
C2211      H2215   1.110   1_655  S
C2211      H2216   1.110       .  S
C2211      H2217   1.107   1_655  S
C2214      H2218   1.108       .  S
C2214      H2219   1.111       .  S
C2214      H2220   1.111       .  S
C2221      C2222   1.402       .  A
C2221      C2226   1.404       .  A
C2221      H2228   1.085       .  S
C2222      C2223   1.410       .  A
C2223      C2224   1.403       .  A
C2223      C2230   1.502       .  S
C2224      C2225   1.403       .  A
C2224      H2229   1.084       .  S
C2225      C2226   1.416       .  A
C2226      C2227   1.506       .  S
C2227      H2231   1.111       .  S
C2227      H2232   1.107       .  S
C2227      H2233   1.110       .  S
C2230      H2234   1.110       .  S
C2230      H2235   1.109       .  S
C2230      H2236   1.111       .  S
C2237      C2238   1.398       .  A
C2237      C2242   1.388       .  A
C2237      H2244   1.086       .  S
C2238      C2239   1.407       .  A
C2239      C2240   1.394       .  A
C2239      C2246   1.507       .  S
C2240      C2241   1.401       .  A
C2240      H2245   1.084       .  S
C2241      C2242   1.409       .  A
C2242      C2243   1.505       .  S
C2243      H2247   1.111       .  S
C2243      H2248   1.104       .  S
C2243      H2249   1.110       .  S
C2246      H2250   1.109       .  S
C2246      H2251   1.110       .  S
C2246      H2252   1.111       .  S
C2253      C2254   1.404       .  A
C2253      C2258   1.412       .  A
C2253      H2260   1.084       .  S
C2254      C2255   1.415       .  A
C2255      C2256   1.403       .  A
C2255      C2262   1.505       .  S
C2256      C2257   1.405       .  A
C2256      H2261   1.085       .  S
C2257      C2258   1.418       .  A
C2258      C2259   1.506       .  S
C2259      H2263   1.111       .  S
C2259      H2264   1.110       .  S
C2259      H2265   1.110       .  S
C2262      H2266   1.105       .  S
C2262      H2267   1.110       .  S
C2262      H2268   1.110       .  S
C2269      C2270   1.397       .  A
C2269      C2274   1.405       .  A
C2269      H2276   1.085       .  S
C2270      C2271   1.416       .  A
C2271      C2272   1.413       .  A
C2271      C2278   1.507       .  S
C2272      C2273   1.406       .  A
C2272      H2277   1.084       .  S
C2273      C2274   1.426       .  A
C2274      C2275   1.505       .  S
C2275      H2279   1.111       .  S
C2275      H2280   1.106       .  S
C2275      H2281   1.109       .  S
C2278      H2282   1.110       .  S
C2278      H2283   1.111       .  S
C2278      H2284   1.111       .  S
C2285      C2286   1.400       .  A
C2285      C2290   1.383       .  A
C2285      H2292   1.085       .  S
C2286      C2287   1.406       .  A
C2287      C2288   1.390       .  A
C2287      C2294   1.508       .  S
C2288      C2289   1.400       .  A
C2288      H2293   1.084       .  S
C2289      C2290   1.407       .  A
C2290      C2291   1.508       .  S
C2291      H2295   1.110       .  S
C2291      H2296   1.105       .  S
C2291      H2297   1.110       .  S
C2294      H2298   1.110       .  S
C2294      H2299   1.111       .  S
C2294      H2300   1.111       .  S
C2301      C2302   1.400       .  A
C2301      C2306   1.399       .  A
C2301      H2308   1.078       .  S
C2302      C2303   1.405       .  A
C2303      C2304   1.397       .  A
C2303      C2310   1.505       .  S
C2304      C2305   1.407       .  A
C2304      H2309   1.083       .  S
C2305      C2306   1.417       .  A
C2306      C2307   1.507       .  S
C2307      H2311   1.111       .  S
C2307      H2312   1.107   1_455  S
C2307      H2313   1.110       .  S
C2310      H2314   1.109       .  S
C2310      H2315   1.110       .  S
C2310      H2316   1.110       .  S
C2317      C2318   1.393       .  A
C2317      C2322   1.386       .  A
C2317      H2324   1.084       .  S
C2318      C2319   1.403       .  A
C2319      C2320   1.391       .  A
C2319      C2326   1.507       .  S
C2320      C2321   1.399       .  A
C2320      H2325   1.084       .  S
C2321      C2322   1.414       .  A
C2322      C2323   1.509       .  S
C2323      H2327   1.110       .  S
C2323      H2328   1.104       .  S
C2323      H2329   1.110       .  S
C2326      H2330   1.111       .  S
C2326      H2331   1.110       .  S
C2326      H2332   1.111       .  S
C2333      C2334   1.395       .  A
C2333      C2338   1.397       .  A
C2333      H2340   1.085       .  S
C2334      C2335   1.415       .  A
C2335      C2336   1.387       .  A
C2335      C2342   1.505       .  S
C2336      C2337   1.396       .  A
C2336      H2341   1.085       .  S
C2337      C2338   1.418       .  A
C2338      C2339   1.508       .  S
C2339      H2343   1.111       .  S
C2339      H2344   1.109       .  S
C2339      H2345   1.108       .  S
C2342      H2346   1.111       .  S
C2342      H2347   1.099       .  S
C2342      H2348   1.110       .  S
C2349      C2350   1.399       .  A
C2349      C2354   1.391       .  A
C2349      H2356   1.084       .  S
C2350      C2351   1.415       .  A
C2351      C2352   1.386       .  A
C2351      C2358   1.510       .  S
C2352      C2353   1.391       .  A
C2352      H2357   1.084       .  S
C2353      C2354   1.407       .  A
C2354      C2355   1.508       .  S
C2355      H2359   1.111       .  S
C2355      H2360   1.106       .  S
C2355      H2361   1.104       .  S
C2358      H2362   1.109       .  S
C2358      H2363   1.109       .  S
C2358      H2364   1.111       .  S
C2365      C2366   1.402       .  A
C2365      C2370   1.400       .  A
C2365      H2372   1.078       .  S
C2366      C2367   1.420       .  A
C2367      C2368   1.410       .  A
C2367      C2374   1.506   1_565  S
C2368      C2369   1.402       .  A
C2368      H2373   1.084       .  S
C2369      C2370   1.411       .  A
C2370      C2371   1.503       .  S
C2371      H2375   1.108       .  S
C2371      H2376   1.111       .  S
C2371      H2377   1.107       .  S
C2374      H2378   1.106       .  S
C2374      H2379   1.110       .  S
C2374      H2380   1.111   1_545  S
C2381      C2382   1.403       .  A
C2381      C2386   1.398       .  A
C2381      H2388   1.085       .  S
C2382      C2383   1.405       .  A
C2383      C2384   1.395       .  A
C2383      C2390   1.507       .  S
C2384      C2385   1.402       .  A
C2384      H2389   1.084       .  S
C2385      C2386   1.408       .  A
C2386      C2387   1.507       .  S
C2387      H2391   1.110       .  S
C2387      H2392   1.111       .  S
C2387      H2393   1.109       .  S
C2390      H2394   1.110       .  S
C2390      H2395   1.110       .  S
C2390      H2396   1.111       .  S
C2397      C2398   1.401       .  A
C2397      C2402   1.404       .  A
C2397      H2404   1.084       .  S
C2398      C2399   1.411       .  A
C2399      C2400   1.391       .  A
C2399      C2406   1.502       .  S
C2400      C2401   1.399       .  A
C2400      H2405   1.085       .  S
C2401      C2402   1.414       .  A
C2402      C2403   1.507       .  S
C2403      H2407   1.111       .  S
C2403      H2408   1.111       .  S
C2403      H2409   1.110       .  S
C2406      H2410   1.101       .  S
C2406      H2411   1.110       .  S
C2406      H2412   1.110       .  S
C2413      C2414   1.406       .  A
C2413      C2418   1.383       .  A
C2413      H2420   1.083       .  S
C2414      C2415   1.408       .  A
C2415      C2416   1.405       .  A
C2415      C2422   1.505       .  S
C2416      C2417   1.406       .  A
C2416      H2421   1.084       .  S
C2417      C2418   1.406       .  A
C2418      C2419   1.509       .  S
C2419      H2423   1.111       .  S
C2419      H2424   1.110       .  S
C2419      H2425   1.104       .  S
C2422      H2426   1.110       .  S
C2422      H2427   1.111       .  S
C2422      H2428   1.111       .  S
C2429      C2430   1.397       .  A
C2429      C2434   1.395       .  A
C2429      H2436   1.082       .  S
C2430      C2431   1.406       .  A
C2431      C2432   1.390       .  A
C2431      C2438   1.509       .  S
C2432      C2433   1.404       .  A
C2432      H2437   1.085       .  S
C2433      C2434   1.415       .  A
C2434      C2435   1.509       .  S
C2435      H2439   1.111       .  S
C2435      H2440   1.110       .  S
C2435      H2441   1.110       .  S
C2438      H2442   1.108       .  S
C2438      H2443   1.111       .  S
C2438      H2444   1.110       .  S
C2445      C2446   1.397       .  A
C2445      C2450   1.412       .  A
C2445      H2452   1.085       .  S
C2446      C2447   1.413       .  A
C2447      C2448   1.414       .  A
C2447      C2454   1.506       .  S
C2448      C2449   1.418       .  A
C2448      H2453   1.076       .  S
C2449      C2450   1.435       .  A
C2450      C2451   1.502   1_655  S
C2451      H2455   1.110       .  S
C2451      H2456   1.109       .  S
C2451      H2457   1.097       .  S
C2454      H2458   1.106       .  S
C2454      H2459   1.111       .  S
C2454      H2460   1.110       .  S
C2461      C2462   1.411       .  A
C2461      C2466   1.410       .  A
C2461      H2468   1.083       .  S
C2462      C2463   1.412       .  A
C2463      C2464   1.404       .  A
C2463      C2470   1.506       .  S
C2464      C2465   1.406       .  A
C2464      H2469   1.085       .  S
C2465      C2466   1.407       .  A
C2466      C2467   1.504       .  S
C2467      H2471   1.111       .  S
C2467      H2472   1.111       .  S
C2467      H2473   1.110       .  S
C2470      H2474   1.110       .  S
C2470      H2475   1.104       .  S
C2470      H2476   1.110       .  S
C2477      C2478   1.409       .  A
C2477      C2482   1.421       .  A
C2477      H2484   1.083       .  S
C2478      C2479   1.426       .  A
C2479      C2480   1.390       .  A
C2479      C2486   1.513       .  S
C2480      C2481   1.394       .  A
C2480      H2485   1.083       .  S
C2481      C2482   1.417       .  A
C2482      C2483   1.504       .  S
C2483      H2487   1.111       .  S
C2483      H2488   1.110       .  S
C2483      H2489   1.111   1_655  S
C2486      H2490   1.109       .  S
C2486      H2491   1.109       .  S
C2486      H2492   1.111       .  S
C2493      C2494   1.410       .  A
C2493      C2498   1.405       .  A
C2493      H2500   1.085       .  S
C2494      C2495   1.409       .  A
C2495      C2496   1.414       .  A
C2495      C2502   1.504       .  S
C2496      C2497   1.412       .  A
C2496      H2501   1.083       .  S
C2497      C2498   1.412       .  A
C2498      C2499   1.505       .  S
C2499      H2503   1.111       .  S
C2499      H2504   1.111       .  S
C2499      H2505   1.106       .  S
C2502      H2506   1.110       .  S
C2502      H2507   1.110       .  S
C2502      H2508   1.111       .  S
C2509      C2510   1.390       .  A
C2509      C2514   1.383       .  A
C2509      H2516   1.086       .  S
C2510      C2511   1.410       .  A
C2511      C2512   1.391       .  A
C2511      C2518   1.508       .  S
C2512      C2513   1.396       .  A
C2512      H2517   1.085       .  S
C2513      C2514   1.416       .  A
C2514      C2515   1.504       .  S
C2515      H2519   1.110       .  S
C2515      H2520   1.110       .  S
C2515      H2521   1.099       .  S
C2518      H2522   1.110       .  S
C2518      H2523   1.108       .  S
C2518      H2524   1.111       .  S
C2525      C2526   1.405       .  A
C2525      C2530   1.396       .  A
C2525      H2532   1.084       .  S
C2526      C2527   1.411       .  A
C2527      C2528   1.381       .  A
C2527      C2534   1.510       .  S
C2528      C2529   1.394       .  A
C2528      H2533   1.082       .  S
C2529      C2530   1.406       .  A
C2530      C2531   1.507       .  S
C2531      H2535   1.111       .  S
C2531      H2536   1.108       .  S
C2531      H2537   1.105       .  S
C2534      H2538   1.110       .  S
C2534      H2539   1.109       .  S
C2534      H2540   1.109       .  S
C2541      C2542   1.404       .  A
C2541      C2546   1.392       .  A
C2541      H2548   1.085       .  S
C2542      C2543   1.409       .  A
C2543      C2544   1.397       .  A
C2543      C2550   1.508       .  S
C2544      C2545   1.402       .  A
C2544      H2549   1.084       .  S
C2545      C2546   1.405       .  A
C2546      C2547   1.505       .  S
C2547      H2551   1.110       .  S
C2547      H2552   1.105       .  S
C2547      H2553   1.110       .  S
C2550      H2554   1.111       .  S
C2550      H2555   1.109       .  S
C2550      H2556   1.111       .  S
C2557      C2558   1.406       .  A
C2557      C2562   1.394       .  A
C2557      H2564   1.085       .  S
C2558      C2559   1.411       .  A
C2559      C2560   1.392       .  A
C2559      C2566   1.508       .  S
C2560      C2561   1.398       .  A
C2560      H2565   1.081       .  S
C2561      C2562   1.401       .  A
C2562      C2563   1.505       .  S
C2563      H2567   1.111       .  S
C2563      H2568   1.110       .  S
C2563      H2569   1.110       .  S
C2566      H2570   1.110       .  S
C2566      H2571   1.110       .  S
C2566      H2572   1.111       .  S
C2573      C2574   1.406       .  A
C2573      C2578   1.401       .  A
C2573      H2580   1.083       .  S
C2574      C2575   1.424       .  A
C2575      C2576   1.398       .  A
C2575      C2582   1.510       .  S
C2576      C2577   1.397       .  A
C2576      H2581   1.084       .  S
C2577      C2578   1.410       .  A
C2578      C2579   1.502       .  S
C2579      H2583   1.110       .  S
C2579      H2584   1.106       .  S
C2579      H2585   1.110       .  S
C2582      H2586   1.110       .  S
C2582      H2587   1.108       .  S
C2582      H2588   1.111       .  S
C2589      C2590   1.416       .  A
C2589      C2594   1.419       .  A
C2589      H2596   1.077       .  S
C2590      C2591   1.434       .  A
C2591      C2592   1.415       .  A
C2591      C2598   1.509       .  S
C2592      C2593   1.400       .  A
C2592      H2597   1.081       .  S
C2593      C2594   1.414       .  A
C2594      C2595   1.505       .  S
C2595      H2599   1.111       .  S
C2595      H2600   1.110       .  S
C2595      H2601   1.106       .  S
C2598      H2602   1.103       .  S
C2598      H2603   1.110       .  S
C2598      H2604   1.111       .  S
C2605      C2606   1.407       .  A
C2605      C2610   1.400       .  A
C2605      H2612   1.084       .  S
C2606      C2607   1.417       .  A
C2607      C2608   1.413       .  A
C2607      C2614   1.504       .  S
C2608      C2609   1.406       .  A
C2608      H2613   1.084       .  S
C2609      C2610   1.412       .  A
C2610      C2611   1.503       .  S
C2611      H2615   1.110       .  S
C2611      H2616   1.100       .  S
C2611      H2617   1.111       .  S
C2614      H2618   1.110       .  S
C2614      H2619   1.107       .  S
C2614      H2620   1.111       .  S
C2621      C2622   1.406       .  A
C2621      C2626   1.404       .  A
C2621      H2628   1.083       .  S
C2622      C2623   1.423       .  A
C2623      C2624   1.412       .  A
C2623      C2630   1.505       .  S
C2624      C2625   1.401       .  A
C2624      H2629   1.083       .  S
C2625      C2626   1.413       .  A
C2626      C2627   1.506       .  S
C2627      H2631   1.110   1_565  S
C2627      H2632   1.110       .  S
C2627      H2633   1.107       .  S
C2630      H2634   1.102       .  S
C2630      H2635   1.110       .  S
C2630      H2636   1.111       .  S
C2637      C2638   1.415       .  A
C2637      C2642   1.414       .  A
C2637      H2644   1.077       .  S
C2638      C2639   1.435       .  A
C2639      C2640   1.403       .  A
C2639      C2646   1.511       .  S
C2640      C2641   1.394       .  A
C2640      H2645   1.082       .  S
C2641      C2642   1.409       .  A
C2642      C2643   1.503       .  S
C2643      H2647   1.111       .  S
C2643      H2648   1.110       .  S
C2643      H2649   1.106       .  S
C2646      H2650   1.101       .  S
C2646      H2651   1.109       .  S
C2646      H2652   1.110       .  S
C2653      C2654   1.407       .  A
C2653      C2658   1.407       .  A
C2653      H2660   1.079       .  S
C2654      C2655   1.413       .  A
C2655      C2656   1.414       .  A
C2655      C2662   1.504       .  S
C2656      C2657   1.408       .  A
C2656      H2661   1.084       .  S
C2657      C2658   1.410       .  A
C2658      C2659   1.505       .  S
C2659      H2663   1.111       .  S
C2659      H2664   1.108   1_556  S
C2659      H2665   1.106       .  S
C2662      H2666   1.110       .  S
C2662      H2667   1.109       .  S
C2662      H2668   1.111       .  S
C2669      C2670   1.402       .  A
C2669      C2674   1.405       .  A
C2669      H2676   1.084       .  S
C2670      C2671   1.414       .  A
C2671      C2672   1.404       .  A
C2671      C2678   1.505       .  S
C2672      C2673   1.401       .  A
C2672      H2677   1.084       .  S
C2673      C2674   1.415       .  A
C2674      C2675   1.502       .  S
C2675      H2679   1.110   1_545  S
C2675      H2680   1.103       .  S
C2675      H2681   1.110       .  S
C2678      H2682   1.110       .  S
C2678      H2683   1.107       .  S
C2678      H2684   1.111       .  S
C2685      C2686   1.402       .  A
C2685      C2690   1.412       .  A
C2685      H2692   1.084       .  S
C2686      C2687   1.415       .  A
C2687      C2688   1.400       .  A
C2687      C2694   1.506       .  S
C2688      C2689   1.399       .  A
C2688      H2693   1.082       .  S
C2689      C2690   1.420       .  A
C2690      C2691   1.505   1_556  S
C2691      H2695   1.110   1_554  S
C2691      H2696   1.106       .  S
C2691      H2697   1.110       .  S
C2694      H2698   1.108       .  S
C2694      H2699   1.108       .  S
C2694      H2700   1.111       .  S
C2701      C2702   1.424       .  A
C2701      C2706   1.422       .  A
C2701      H2708   1.078       .  S
C2702      C2703   1.434       .  A
C2703      C2704   1.437       .  A
C2703      C2710   1.503       .  S
C2704      C2705   1.414       .  A
C2704      H2709   1.083       .  S
C2705      C2706   1.415       .  A
C2706      C2707   1.504       .  S
C2707      H2711   1.110       .  S
C2707      H2712   1.104       .  S
C2707      H2713   1.108       .  S
C2710      H2714   1.104       .  S
C2710      H2715   1.110       .  S
C2710      H2716   1.111       .  S
C2717      C2718   1.409       .  A
C2717      C2722   1.416       .  A
C2717      H2724   1.083       .  S
C2718      C2719   1.429       .  A
C2719      C2720   1.414       .  A
C2719      C2726   1.506       .  S
C2720      C2721   1.401       .  A
C2720      H2725   1.084       .  S
C2721      C2722   1.424       .  A
C2722      C2723   1.504       .  S
C2723      H2727   1.106       .  S
C2723      H2728   1.110       .  S
C2723      H2729   1.110       .  S
C2726      H2730   1.108       .  S
C2726      H2731   1.110       .  S
C2726      H2732   1.110       .  S
C2733      C2734   1.420       .  A
C2733      C2738   1.415       .  A
C2733      H2740   1.078       .  S
C2734      C2735   1.434       .  A
C2735      C2736   1.419       .  A
C2735      C2742   1.508       .  S
C2736      C2737   1.403       .  A
C2736      H2741   1.081       .  S
C2737      C2738   1.411       .  A
C2738      C2739   1.506       .  S
C2739      H2743   1.111       .  S
C2739      H2744   1.106       .  S
C2739      H2745   1.110       .  S
C2742      H2746   1.104       .  S
C2742      H2747   1.107       .  S
C2742      H2748   1.111       .  S
C2749      C2750   1.411       .  A
C2749      C2754   1.402       .  A
C2749      H2756   1.082       .  S
C2750      C2751   1.416       .  A
C2751      C2752   1.410       .  A
C2751      C2758   1.505       .  S
C2752      C2753   1.405       .  A
C2752      H2757   1.084       .  S
C2753      C2754   1.408       .  A
C2754      C2755   1.505       .  S
C2755      H2759   1.111       .  S
C2755      H2760   1.110       .  S
C2755      H2761   1.108       .  S
C2758      H2762   1.107       .  S
C2758      H2763   1.110       .  S
C2758      H2764   1.111       .  S
C2765      C2766   1.413       .  A
C2765      C2770   1.423       .  A
C2765      H2772   1.081       .  S
C2766      C2767   1.423       .  A
C2767      C2768   1.421       .  A
C2767      C2774   1.503       .  S
C2768      C2769   1.412       .  A
C2768      H2773   1.084       .  S
C2769      C2770   1.421       .  A
C2770      C2771   1.506       .  S
C2771      H2775   1.111       .  S
C2771      H2776   1.110       .  S
C2771      H2777   1.110       .  S
C2774      H2778   1.111       .  S
C2774      H2779   1.105       .  S
C2774      H2780   1.110       .  S
C2781      C2782   1.393       .  A
C2781      C2786   1.388       .  A
C2781      H2788   1.085       .  S
C2782      C2783   1.412       .  A
C2783      C2784   1.389       .  A
C2783      C2790   1.509       .  S
C2784      C2785   1.398       .  A
C2784      H2789   1.084       .  S
C2785      C2786   1.414       .  A
C2786      C2787   1.508       .  S
C2787      H2791   1.111       .  S
C2787      H2792   1.109       .  S
C2787      H2793   1.111       .  S
C2790      H2794   1.110       .  S
C2790      H2795   1.107       .  S
C2790      H2796   1.111       .  S
C2797      C2798   1.404       .  A
C2797      C2802   1.413       .  A
C2797      H2804   1.082       .  S
C2798      C2799   1.413       .  A
C2799      C2800   1.412       .  A
C2799      C2806   1.505       .  S
C2800      C2801   1.408       .  A
C2800      H2805   1.083       .  S
C2801      C2802   1.419       .  A
C2802      C2803   1.506       .  S
C2803      H2807   1.111       .  S
C2803      H2808   1.108       .  S
C2803      H2809   1.110       .  S
C2806      H2810   1.109       .  S
C2806      H2811   1.110       .  S
C2806      H2812   1.111       .  S
C2813      C2814   1.413       .  A
C2813      C2818   1.435       .  A
C2813      H2820   1.081       .  S
C2814      C2815   1.420       .  A
C2815      C2816   1.429       .  A
C2815      C2822   1.507       .  S
C2816      C2817   1.420       .  A
C2816      H2821   1.070       .  S
C2817      C2818   1.436       .  A
C2818      C2819   1.507       .  S
C2819      H2823   1.106       .  S
C2819      H2824   1.109       .  S
C2819      H2825   1.111       .  S
C2822      H2826   1.111       .  S
C2822      H2827   1.108       .  S
C2822      H2828   1.110       .  S
C2829      C2830   1.394       .  A
C2829      C2834   1.396       .  A
C2829      H2836   1.084       .  S
C2830      C2831   1.409       .  A
C2831      C2832   1.401       .  A
C2831      C2838   1.506       .  S
C2832      C2833   1.406       .  A
C2832      H2837   1.084       .  S
C2833      C2834   1.423       .  A
C2834      C2835   1.510       .  S
C2835      H2839   1.111       .  S
C2835      H2840   1.110       .  S
C2835      H2841   1.106       .  S
C2838      H2842   1.108       .  S
C2838      H2843   1.110       .  S
C2838      H2844   1.110       .  S
C2845      C2846   1.402       .  A
C2845      C2850   1.389       .  A
C2845      H2852   1.084       .  S
C2846      C2847   1.403       .  A
C2847      C2848   1.384       .  A
C2847      C2854   1.507       .  S
C2848      C2849   1.402       .  A
C2848      H2853   1.086       .  S
C2849      C2850   1.404       .  A
C2850      C2851   1.505       .  S
C2851      H2855   1.110       .  S
C2851      H2856   1.111       .  S
C2851      H2857   1.105       .  S
C2854      H2858   1.110       .  S
C2854      H2859   1.109       .  S
C2854      H2860   1.105       .  S
C2861      C2862   1.398       .  A
C2861      C2866   1.397       .  A
C2861      H2868   1.084       .  S
C2862      C2863   1.412       .  A
C2863      C2864   1.390       .  A
C2863      C2870   1.507       .  S
C2864      C2865   1.394       .  A
C2864      H2869   1.085       .  S
C2865      C2866   1.409       .  A
C2866      C2867   1.507       .  S
C2867      H2871   1.111       .  S
C2867      H2872   1.110       .  S
C2867      H2873   1.111       .  S
C2870      H2874   1.106       .  S
C2870      H2875   1.109       .  S
C2870      H2876   1.110       .  S
C2877      C2878   1.411       .  A
C2877      C2882   1.406       .  A
C2877      H2884   1.078       .  S
C2878      C2879   1.423       .  A
C2879      C2880   1.415       .  A
C2879      C2886   1.502       .  S
C2880      C2881   1.414       .  A
C2880      H2885   1.084       .  S
C2881      C2882   1.415       .  A
C2882      C2883   1.506       .  S
C2883      H2887   1.110       .  S
C2883      H2888   1.111       .  S
C2883      H2889   1.107       .  S
C2886      H2890   1.103       .  S
C2886      H2891   1.110       .  S
C2886      H2892   1.111       .  S
C2893      C2894   1.408       .  A
C2893      C2898   1.410       .  A
C2893      H2900   1.082       .  S
C2894      C2895   1.420       .  A
C2895      C2896   1.412       .  A
C2895      C2902   1.506       .  S
C2896      C2897   1.403       .  A
C2896      H2901   1.084       .  S
C2897      C2898   1.410       .  A
C2898      C2899   1.503       .  S
C2899      H2903   1.111       .  S
C2899      H2904   1.111       .  S
C2899      H2905   1.108       .  S
C2902      H2906   1.106       .  S
C2902      H2907   1.110       .  S
C2902      H2908   1.110       .  S
C2909      C2910   1.395       .  A
C2909      C2914   1.390       .  A
C2909      H2916   1.085       .  S
C2910      C2911   1.412       .  A
C2911      C2912   1.377       .  A
C2911      C2918   1.510       .  S
C2912      C2913   1.391       .  A
C2912      H2917   1.086       .  S
C2913      C2914   1.406       .  A
C2914      C2915   1.504       .  S
C2915      H2919   1.111       .  S
C2915      H2920   1.111       .  S
C2915      H2921   1.108       .  S
C2918      H2922   1.107       .  S
C2918      H2923   1.110       .  S
C2918      H2924   1.110       .  S
C2925      C2926   1.405       .  A
C2925      C2930   1.412       .  A
C2925      H2932   1.083       .  S
C2926      C2927   1.417       .  A
C2927      C2928   1.405       .  A
C2927      C2934   1.506       .  S
C2928      C2929   1.406       .  A
C2928      H2933   1.085       .  S
C2929      C2930   1.418       .  A
C2930      C2931   1.506       .  S
C2931      H2935   1.111       .  S
C2931      H2936   1.109       .  S
C2931      H2937   1.111       .  S
C2934      H2938   1.105       .  S
C2934      H2939   1.110       .  S
C2934      H2940   1.110       .  S
C2941      C2942   1.400       .  A
C2941      C2946   1.397       .  A
C2941      H2948   1.078       .  S
C2942      C2943   1.412       .  A
C2943      C2944   1.394       .  A
C2943      C2950   1.508       .  S
C2944      C2945   1.399       .  A
C2944      H2949   1.085       .  S
C2945      C2946   1.411       .  A
C2946      C2947   1.509       .  S
C2947      H2951   1.111       .  S
C2947      H2952   1.111       .  S
C2947      H2953   1.109       .  S
C2950      H2954   1.107       .  S
C2950      H2955   1.110       .  S
C2950      H2956   1.110       .  S
C2957      C2958   1.406       .  A
C2957      C2962   1.412       .  A
C2957      H2964   1.084       .  S
C2958      C2959   1.413       .  A
C2959      C2960   1.401       .  A
C2959      C2966   1.505       .  S
C2960      C2961   1.404       .  A
C2960      H2965   1.084       .  S
C2961      C2962   1.412       .  A
C2962      C2963   1.504       .  S
C2963      H2967   1.111       .  S
C2963      H2968   1.109       .  S
C2963      H2969   1.110       .  S
C2966      H2970   1.110       .  S
C2966      H2971   1.105       .  S
C2966      H2972   1.111       .  S
C2973      C2974   1.403       .  A
C2973      C2978   1.419       .  A
C2973      H2980   1.085       .  S
C2974      C2975   1.416       .  A
C2975      C2976   1.415       .  A
C2975      C2982   1.507       .  S
C2976      C2977   1.417       .  A
C2976      H2981   1.080       .  S
C2977      C2978   1.434       .  A
C2978      C2979   1.508       .  S
C2979      H2983   1.110       .  S
C2979      H2984   1.111       .  S
C2979      H2985   1.102   1_545  S
C2982      H2986   1.110       .  S
C2982      H2987   1.108       .  S
C2982      H2988   1.110       .  S
C2989      C2990   1.404       .  A
C2989      C2994   1.407       .  A
C2989      H2996   1.084       .  S
C2990      C2991   1.416       .  A
C2991      C2992   1.393       .  A
C2991      C2998   1.508       .  S
C2992      C2993   1.395       .  A
C2992      H2997   1.083       .  S
C2993      C2994   1.412       .  A
C2994      C2995   1.505       .  S
C2995      H2999   1.110       .  S
C2995      H3000   1.110       .  S
C2995      H3001   1.109       .  S
C2998      H3002   1.109       .  S
C2998      H3003   1.110       .  S
C2998      H3004   1.111       .  S
C3005      C3006   1.397       .  A
C3005      C3010   1.390       .  A
C3005      H3012   1.083       .  S
C3006      C3007   1.411       .  A
C3007      C3008   1.396       .  A
C3007      C3014   1.506       .  S
C3008      C3009   1.397       .  A
C3008      H3013   1.085       .  S
C3009      C3010   1.409       .  A
C3010      C3011   1.509       .  S
C3011      H3015   1.111       .  S
C3011      H3016   1.110       .  S
C3011      H3017   1.110       .  S
C3014      H3018   1.109       .  S
C3014      H3019   1.110       .  S
C3014      H3020   1.110       .  S
C3021      C3022   1.398       .  A
C3021      C3026   1.400       .  A
C3021      H3028   1.084       .  S
C3022      C3023   1.406       .  A
C3023      C3024   1.383       .  A
C3023      C3030   1.508       .  S
C3024      C3025   1.403       .  A
C3024      H3029   1.085       .  S
C3025      C3026   1.413       .  A
C3026      C3027   1.504       .  S
C3027      H3031   1.109       .  S
C3027      H3032   1.111       .  S
C3027      H3033   1.111       .  S
C3030      H3034   1.110       .  S
C3030      H3035   1.109       .  S
C3030      H3036   1.110       .  S
C3037      C3038   1.408       .  A
C3037      C3042   1.416       .  A
C3037      H3044   1.077       .  S
C3038      C3039   1.412       .  A
C3039      C3040   1.415       .  A
C3039      C3046   1.507       .  S
C3040      C3041   1.423       .  A
C3040      H3045   1.077       .  S
C3041      C3042   1.430       .  A
C3042      C3043   1.506       .  S
C3043      H3047   1.111       .  S
C3043      H3048   1.110       .  S
C3043      H3049   1.103       .  S
C3046      H3050   1.110       .  S
C3046      H3051   1.106       .  S
C3046      H3052   1.111       .  S
C3053      C3054   1.404       .  A
C3053      C3058   1.417       .  A
C3053      H3060   1.084       .  S
C3054      C3055   1.420       .  A
C3055      C3056   1.417       .  A
C3055      C3062   1.506       .  S
C3056      C3057   1.411       .  A
C3056      H3061   1.083       .  S
C3057      C3058   1.424       .  A
C3058      C3059   1.506       .  S
C3059      H3063   1.111       .  S
C3059      H3064   1.110       .  S
C3059      H3065   1.107       .  S
C3062      H3066   1.106       .  S
C3062      H3067   1.110       .  S
C3062      H3068   1.110       .  S
C3069      C3070   1.398       .  A
C3069      C3074   1.387       .  A
C3069      H3076   1.085       .  S
C3070      C3071   1.400       .  A
C3071      C3072   1.381       .  A
C3071      C3078   1.510       .  S
C3072      C3073   1.410       .  A
C3072      H3077   1.084       .  S
C3073      C3074   1.413       .  A
C3074      C3075   1.510       .  S
C3075      H3079   1.111       .  S
C3075      H3080   1.107       .  S
C3075      H3081   1.110       .  S
C3078      H3082   1.105       .  S
C3078      H3083   1.111       .  S
C3078      H3084   1.110       .  S
C3085      C3086   1.404       .  A
C3085      C3090   1.397       .  A
C3085      H3092   1.085       .  S
C3086      C3087   1.409       .  A
C3087      C3088   1.410       .  A
C3087      C3094   1.503       .  S
C3088      C3089   1.407       .  A
C3088      H3093   1.081       .  S
C3089      C3090   1.410       .  A
C3090      C3091   1.505       .  S
C3091      H3095   1.111       .  S
C3091      H3096   1.108       .  S
C3091      H3097   1.110       .  S
C3094      H3098   1.111       .  S
C3094      H3099   1.110       .  S
C3094      H3100   1.111       .  S
C3101      C3102   1.411       .  A
C3101      C3106   1.399       .  A
C3101      H3108   1.079       .  S
C3102      C3103   1.432       .  A
C3103      C3104   1.405       .  A
C3103      C3110   1.510       .  S
C3104      C3105   1.396       .  A
C3104      H3109   1.085       .  S
C3105      C3106   1.406       .  A
C3106      C3107   1.507       .  S
C3107      H3111   1.111       .  S
C3107      H3112   1.108       .  S
C3107      H3113   1.105       .  S
C3110      H3114   1.101       .  S
C3110      H3115   1.110       .  S
C3110      H3116   1.111       .  S
C3117      C3118   1.411       .  A
C3117      C3122   1.396       .  A
C3117      H3124   1.082       .  S
C3118      C3119   1.411       .  A
C3119      C3120   1.402       .  A
C3119      C3126   1.506       .  S
C3120      C3121   1.402       .  A
C3120      H3125   1.081       .  S
C3121      C3122   1.404       .  A
C3122      C3123   1.506       .  S
C3123      H3127   1.111       .  S
C3123      H3128   1.107       .  S
C3123      H3129   1.111       .  S
C3126      H3130   1.107       .  S
C3126      H3131   1.110       .  S
C3126      H3132   1.111       .  S
C3133      C3134   1.403       .  A
C3133      C3138   1.411       .  A
C3133      H3140   1.084       .  S
C3134      C3135   1.412   1_556  A
C3135      C3136   1.405       .  A
C3135      C3142   1.495       .  S
C3136      C3137   1.400   1_554  A
C3136      H3141   1.084       .  S
C3137      C3138   1.416       .  A
C3138      C3139   1.502       .  S
C3139      H3143   1.110       .  S
C3139      H3144   1.107       .  S
C3139      H3145   1.110       .  S
C3142      H3146   1.110       .  S
C3142      H3147   1.108       .  S
C3142      H3148   1.111       .  S
C3149      C3150   1.396       .  A
C3149      C3154   1.386   1_655  A
C3149      H3156   1.084       .  S
C3150      C3151   1.411       .  A
C3151      C3152   1.395       .  A
C3151      C3158   1.503       .  S
C3152      C3153   1.397   1_655  A
C3152      H3157   1.084       .  S
C3153      C3154   1.416       .  A
C3154      C3155   1.504       .  S
C3155      H3159   1.110       .  S
C3155      H3160   1.110       .  S
C3155      H3161   1.095       .  S
C3158      H3162   1.110       .  S
C3158      H3163   1.108       .  S
C3158      H3164   1.111       .  S
C3165      C3166   1.419       .  A
C3165      C3170   1.428       .  A
C3165      H3172   1.079       .  S
C3166      C3167   1.441       .  A
C3167      C3168   1.430       .  A
C3167      C3174   1.508       .  S
C3168      C3169   1.407       .  A
C3168      H3173   1.084       .  S
C3169      C3170   1.420       .  A
C3170      C3171   1.504       .  S
C3171      H3175   1.110       .  S
C3171      H3176   1.106       .  S
C3171      H3177   1.110       .  S
C3174      H3178   1.110       .  S
C3174      H3179   1.102   1_554  S
C3174      H3180   1.111   1_554  S
C3181      C3182   1.403       .  A
C3181      C3186   1.413       .  A
C3181      H3188   1.083       .  S
C3182      C3183   1.416       .  A
C3183      C3184   1.415       .  A
C3183      C3190   1.502       .  S
C3184      C3185   1.407       .  A
C3184      H3189   1.083       .  S
C3185      C3186   1.423       .  A
C3186      C3187   1.506       .  S
C3187      H3191   1.111   1_554  S
C3187      H3192   1.110       .  S
C3187      H3193   1.107       .  S
C3190      H3194   1.107       .  S
C3190      H3195   1.106   1_554  S
C3190      H3196   1.111       .  S
C3197      C3198   1.401       .  A
C3197      C3202   1.404       .  A
C3197      H3204   1.082       .  S
C3198      C3199   1.427       .  A
C3199      C3200   1.408   1_655  A
C3199      C3206   1.506       .  S
C3200      C3201   1.400       .  A
C3200      H3205   1.083       .  S
C3201      C3202   1.424   1_455  A
C3202      C3203   1.505       .  S
C3203      H3207   1.110       .  S
C3203      H3208   1.110       .  S
C3203      H3209   1.107       .  S
C3206      H3210   1.111   1_656  S
C3206      H3211   1.109       .  S
C3206      H3212   1.111   1_655  S
C3213      C3214   1.416       .  A
C3213      C3218   1.428       .  A
C3213      H3220   1.083       .  S
C3214      C3215   1.421       .  A
C3215      C3216   1.431       .  A
C3215      C3222   1.504       .  S
C3216      C3217   1.425       .  A
C3216      H3221   1.083       .  S
C3217      C3218   1.428       .  A
C3218      C3219   1.502       .  S
C3219      H3223   1.110       .  S
C3219      H3224   1.107       .  S
C3219      H3225   1.110       .  S
C3222      H3226   1.111       .  S
C3222      H3227   1.108   1_655  S
C3222      H3228   1.111       .  S
C3229      C3230   1.420       .  A
C3229      C3234   1.440       .  A
C3229      H3236   1.083       .  S
C3230      C3231   1.437       .  A
C3231      C3232   1.437       .  A
C3231      C3238   1.506       .  S
C3232      C3233   1.414       .  A
C3232      H3237   1.083       .  S
C3233      C3234   1.429       .  A
C3234      C3235   1.502       .  S
C3235      H3239   1.110       .  S
C3235      H3240   1.109       .  S
C3235      H3241   1.110       .  S
C3238      H3242   1.110       .  S
C3238      H3243   1.106       .  S
C3238      H3244   1.111       .  S
C3245      C3246   1.399       .  A
C3245      C3250   1.402       .  A
C3245      H3252   1.084       .  S
C3246      C3247   1.408       .  A
C3247      C3248   1.388       .  A
C3247      C3254   1.509       .  S
C3248      C3249   1.400       .  A
C3248      H3253   1.082       .  S
C3249      C3250   1.414       .  A
C3250      C3251   1.504       .  S
C3251      H3255   1.110       .  S
C3251      H3256   1.110       .  S
C3251      H3257   1.106       .  S
C3254      H3258   1.110       .  S
C3254      H3259   1.108       .  S
C3254      H3260   1.111       .  S
C3261      C3262   1.425       .  A
C3261      C3266   1.456       .  A
C3261      H3268   1.082       .  S
C3262      C3263   1.456       .  A
C3263      C3264   1.457       .  A
C3263      C3270   1.506       .  S
C3264      C3265   1.420       .  A
C3264      H3269   1.084       .  S
C3265      C3266   1.443       .  A
C3266      C3267   1.500       .  S
C3267      H3271   1.108       .  S
C3267      H3272   1.108       .  S
C3267      H3273   1.110       .  S
C3270      H3274   1.101       .  S
C3270      H3275   1.111       .  S
C3270      H3276   1.110       .  S
C3277      C3278   1.400       .  A
C3277      C3282   1.396       .  A
C3277      H3284   1.084       .  S
C3278      C3279   1.402       .  A
C3279      C3280   1.385       .  A
C3279      C3286   1.505       .  S
C3280      C3281   1.410       .  A
C3280      H3285   1.084       .  S
C3281      C3282   1.416       .  A
C3282      C3283   1.508       .  S
C3283      H3287   1.111       .  S
C3283      H3288   1.110       .  S
C3283      H3289   1.109       .  S
C3286      H3290   1.110       .  S
C3286      H3291   1.104       .  S
C3286      H3292   1.110       .  S
C3293      C3294   1.401       .  A
C3293      C3298   1.405       .  A
C3293      H3300   1.084       .  S
C3294      C3295   1.409       .  A
C3295      C3296   1.389       .  A
C3295      C3302   1.509       .  S
C3296      C3297   1.405       .  A
C3296      H3301   1.085       .  S
C3297      C3298   1.418       .  A
C3298      C3299   1.507       .  S
C3299      H3303   1.111       .  S
C3299      H3304   1.110       .  S
C3299      H3305   1.110       .  S
C3302      H3306   1.111       .  S
C3302      H3307   1.106       .  S
C3302      H3308   1.110       .  S
C3309      C3310   1.413       .  A
C3309      C3314   1.448       .  A
C3309      H3316   1.083       .  S
C3310      C3311   1.436       .  A
C3311      C3312   1.445       .  A
C3311      C3318   1.502       .  S
C3312      C3313   1.420       .  A
C3312      H3317   1.074       .  S
C3313      C3314   1.454       .  A
C3314      C3315   1.511       .  S
C3315      H3319   1.111       .  S
C3315      H3320   1.106       .  S
C3315      H3321   1.106       .  S
C3318      H3322   1.110       .  S
C3318      H3323   1.105       .  S
C3318      H3324   1.111       .  S
C3325      C3326   1.418       .  A
C3325      C3330   1.442       .  A
C3325      H3332   1.084       .  S
C3326      C3327   1.426       .  A
C3327      C3328   1.440       .  A
C3327      C3334   1.505       .  S
C3328      C3329   1.428       .  A
C3328      H3333   1.080       .  S
C3329      C3330   1.439       .  A
C3330      C3331   1.504       .  S
C3331      H3335   1.111       .  S
C3331      H3336   1.105       .  S
C3331      H3337   1.110       .  S
C3334      H3338   1.107       .  S
C3334      H3339   1.110       .  S
C3334      H3340   1.110       .  S
C3341      C3342   1.396       .  A
C3341      C3346   1.381       .  A
C3341      H3348   1.085       .  S
C3342      C3343   1.406       .  A
C3343      C3344   1.387       .  A
C3343      C3350   1.508       .  S
C3344      C3345   1.397       .  A
C3344      H3349   1.085       .  S
C3345      C3346   1.404       .  A
C3346      C3347   1.510       .  S
C3347      H3351   1.111       .  S
C3347      H3352   1.110       .  S
C3347      H3353   1.111       .  S
C3350      H3354   1.108       .  S
C3350      H3355   1.110       .  S
C3350      H3356   1.111       .  S
C3357      C3358   1.402       .  A
C3357      C3362   1.406       .  A
C3357      H3364   1.080       .  S
C3358      C3359   1.424       .  A
C3359      C3360   1.420       .  A
C3359      C3366   1.506       .  S
C3360      C3361   1.406       .  A
C3360      H3365   1.084       .  S
C3361      C3362   1.422       .  A
C3362      C3363   1.508       .  S
C3363      H3367   1.111       .  S
C3363      H3368   1.104       .  S
C3363      H3369   1.109       .  S
C3366      H3370   1.110       .  S
C3366      H3371   1.108       .  S
C3366      H3372   1.110       .  S
C3373      C3374   1.396       .  A
C3373      C3378   1.393       .  A
C3373      H3380   1.080       .  S
C3374      C3375   1.399       .  A
C3375      C3376   1.388       .  A
C3375      C3382   1.505       .  S
C3376      C3377   1.409       .  A
C3376      H3381   1.084       .  S
C3377      C3378   1.418       .  A
C3378      C3379   1.508       .  S
C3379      H3383   1.111       .  S
C3379      H3384   1.110       .  S
C3379      H3385   1.109       .  S
C3382      H3386   1.110       .  S
C3382      H3387   1.110       .  S
C3382      H3388   1.110       .  S
C3389      C3390   1.408       .  A
C3389      C3394   1.405       .  A
C3389      H3396   1.081       .  S
C3390      C3391   1.426       .  A
C3391      C3392   1.400       .  A
C3391      C3398   1.509       .  S
C3392      C3393   1.399       .  A
C3392      H3397   1.082       .  S
C3393      C3394   1.418       .  A
C3394      C3395   1.506       .  S
C3395      H3399   1.110       .  S
C3395      H3400   1.108       .  S
C3395      H3401   1.110       .  S
C3398      H3402   1.111       .  S
C3398      H3403   1.107       .  S
C3398      H3404   1.112       .  S
C3405      C3406   1.404       .  A
C3405      C3410   1.419       .  A
C3405      H3412   1.082       .  S
C3406      C3407   1.417       .  A
C3407      C3408   1.422       .  A
C3407      C3414   1.506       .  S
C3408      C3409   1.419       .  A
C3408      H3413   1.078       .  S
C3409      C3410   1.433       .  A
C3410      C3411   1.506       .  S
C3411      H3415   1.111       .  S
C3411      H3416   1.104       .  S
C3411      H3417   1.108       .  S
C3414      H3418   1.111       .  S
C3414      H3419   1.108       .  S
C3414      H3420   1.110       .  S
C3421      C3422   1.402       .  A
C3421      C3426   1.403       .  A
C3421      H3428   1.085       .  S
C3422      C3423   1.410       .  A
C3423      C3424   1.393       .  A
C3423      C3430   1.508       .  S
C3424      C3425   1.406       .  A
C3424      H3429   1.085       .  S
C3425      C3426   1.417       .  A
C3426      C3427   1.507       .  S
C3427      H3431   1.111       .  S
C3427      H3432   1.109       .  S
C3427      H3433   1.110       .  S
C3430      H3434   1.105       .  S
C3430      H3435   1.111       .  S
C3430      H3436   1.110       .  S
C3437      C3438   1.401       .  A
C3437      C3442   1.390       .  A
C3437      H3444   1.085       .  S
C3438      C3439   1.409       .  A
C3439      C3440   1.382       .  A
C3439      C3446   1.512       .  S
C3440      C3441   1.399       .  A
C3440      H3445   1.077       .  S
C3441      C3442   1.406       .  A
C3442      C3443   1.506       .  S
C3443      H3447   1.110       .  S
C3443      H3448   1.110       .  S
C3443      H3449   1.110       .  S
C3446      H3450   1.110       .  S
C3446      H3451   1.110       .  S
C3446      H3452   1.111       .  S
C3453      C3454   1.399       .  A
C3453      C3458   1.393       .  A
C3453      H3460   1.084       .  S
C3454      C3455   1.413       .  A
C3455      C3456   1.385       .  A
C3455      C3462   1.506       .  S
C3456      C3457   1.393       .  A
C3456      H3461   1.086       .  S
C3457      C3458   1.405       .  A
C3458      C3459   1.507       .  S
C3459      H3463   1.111       .  S
C3459      H3464   1.110       .  S
C3459      H3465   1.110       .  S
C3462      H3466   1.106       .  S
C3462      H3467   1.111       .  S
C3462      H3468   1.110       .  S
C3469      C3470   1.397       .  A
C3469      C3474   1.401       .  A
C3469      H3476   1.084       .  S
C3470      C3471   1.409       .  A
C3471      C3472   1.407       .  A
C3471      C3478   1.504       .  S
C3472      C3473   1.406       .  A
C3472      H3477   1.084       .  S
C3473      C3474   1.416       .  A
C3474      C3475   1.506       .  S
C3475      H3479   1.110       .  S
C3475      H3480   1.107       .  S
C3475      H3481   1.110       .  S
C3478      H3482   1.110       .  S
C3478      H3483   1.111       .  S
C3478      H3484   1.111       .  S
C3485      C3486   1.399       .  A
C3485      C3490   1.406       .  A
C3485      H3492   1.084       .  S
C3486      C3487   1.410       .  A
C3487      C3488   1.386       .  A
C3487      C3494   1.496       .  S
C3488      C3489   1.392       .  A
C3488      H3493   1.085       .  S
C3489      C3490   1.420       .  A
C3490      C3491   1.506       .  S
C3491      H3495   1.110       .  S
C3491      H3496   1.104       .  S
C3491      H3497   1.111       .  S
C3494      H3498   1.110       .  S
C3494      H3499   1.103       .  S
C3494      H3500   1.107       .  S
C3501      C3502   1.391       .  A
C3501      C3506   1.373       .  A
C3501      H3508   1.085       .  S
C3502      C3503   1.400       .  A
C3503      C3504   1.387       .  A
C3503      C3510   1.507       .  S
C3504      C3505   1.399       .  A
C3504      H3509   1.084       .  S
C3505      C3506   1.407       .  A
C3506      C3507   1.512       .  S
C3507      H3511   1.111       .  S
C3507      H3512   1.111       .  S
C3507      H3513   1.107       .  S
C3510      H3514   1.110       .  S
C3510      H3515   1.111       .  S
C3510      H3516   1.111       .  S
C3517      C3518   1.398       .  A
C3517      C3522   1.396       .  A
C3517      H3524   1.083       .  S
C3518      C3519   1.411       .  A
C3519      C3520   1.382       .  A
C3519      C3526   1.506       .  S
C3520      C3521   1.392       .  A
C3520      H3525   1.086       .  S
C3521      C3522   1.405       .  A
C3522      C3523   1.505       .  S
C3523      H3527   1.111       .  S
C3523      H3528   1.110       .  S
C3523      H3529   1.111       .  S
C3526      H3530   1.103       .  S
C3526      H3531   1.110       .  S
C3526      H3532   1.110       .  S
C3533      C3534   1.401       .  A
C3533      C3538   1.412       .  A
C3533      H3540   1.084       .  S
C3534      C3535   1.420       .  A
C3535      C3536   1.413       .  A
C3535      C3542   1.506       .  S
C3536      C3537   1.407       .  A
C3536      H3541   1.084       .  S
C3537      C3538   1.425       .  A
C3538      C3539   1.507       .  S
C3539      H3543   1.111       .  S
C3539      H3544   1.107       .  S
C3539      H3545   1.110       .  S
C3542      H3546   1.109       .  S
C3542      H3547   1.109       .  S
C3542      H3548   1.110       .  S
C3549      C3550   1.398       .  A
C3549      C3554   1.399       .  A
C3549      H3556   1.083       .  S
C3550      C3551   1.408       .  A
C3551      C3552   1.403       .  A
C3551      C3558   1.505       .  S
C3552      C3553   1.410       .  A
C3552      H3557   1.084       .  S
C3553      C3554   1.421       .  A
C3554      C3555   1.508       .  S
C3555      H3559   1.111       .  S
C3555      H3560   1.107       .  S
C3555      H3561   1.110       .  S
C3558      H3562   1.109       .  S
C3558      H3563   1.108       .  S
C3558      H3564   1.111       .  S
C3565      C3566   1.403       .  A
C3565      C3570   1.409       .  A
C3565      H3572   1.084       .  S
C3566      C3567   1.419       .  A
C3567      C3568   1.407       .  A
C3567      C3574   1.504       .  S
C3568      C3569   1.405       .  A
C3568      H3573   1.084       .  S
C3569      C3570   1.419       .  A
C3570      C3571   1.505       .  S
C3571      H3575   1.111       .  S
C3571      H3576   1.108       .  S
C3571      H3577   1.110       .  S
C3574      H3578   1.101       .  S
C3574      H3579   1.110       .  S
C3574      H3580   1.111       .  S
C3581      C3582   1.402       .  A
C3581      C3586   1.402       .  A
C3581      H3588   1.082       .  S
C3582      C3583   1.406       .  A
C3583      C3584   1.389       .  A
C3583      C3590   1.509       .  S
C3584      C3585   1.406       .  A
C3584      H3589   1.085       .  S
C3585      C3586   1.413       .  A
C3586      C3587   1.507       .  S
C3587      H3591   1.111       .  S
C3587      H3592   1.110       .  S
C3587      H3593   1.109       .  S
C3590      H3594   1.110       .  S
C3590      H3595   1.107       .  S
C3590      H3596   1.110       .  S
C3597      C3598   1.406       .  A
C3597      C3602   1.409       .  A
C3597      H3604   1.084       .  S
C3598      C3599   1.414       .  A
C3599      C3600   1.408       .  A
C3599      C3606   1.505       .  S
C3600      C3601   1.406       .  A
C3600      H3605   1.081       .  S
C3601      C3602   1.414       .  A
C3602      C3603   1.505       .  S
C3603      H3607   1.110       .  S
C3603      H3608   1.110   1_554  S
C3603      H3609   1.107       .  S
C3606      H3610   1.107   1_554  S
C3606      H3611   1.110       .  S
C3606      H3612   1.111       .  S
C3613      C3614   1.408       .  A
C3613      C3618   1.419       .  A
C3613      H3620   1.083       .  S
C3614      C3615   1.414       .  A
C3615      C3616   1.407       .  A
C3615      C3622   1.505       .  S
C3616      C3617   1.410       .  A
C3616      H3621   1.084       .  S
C3617      C3618   1.420       .  A
C3618      C3619   1.504       .  S
C3619      H3623   1.111       .  S
C3619      H3624   1.110       .  S
C3619      H3625   1.107   1_455  S
C3622      H3626   1.107       .  S
C3622      H3627   1.108       .  S
C3622      H3628   1.111       .  S
C3629      C3630   1.395       .  A
C3629      C3634   1.411       .  A
C3629      H3636   1.085       .  S
C3630      C3631   1.415       .  A
C3631      C3632   1.430       .  A
C3631      C3638   1.504       .  S
C3632      C3633   1.422       .  A
C3632      H3637   1.080       .  S
C3633      C3634   1.440       .  A
C3634      C3635   1.505       .  S
C3635      H3639   1.111   1_556  S
C3635      H3640   1.096   1_556  S
C3635      H3641   1.109       .  S
C3638      H3642   1.111       .  S
C3638      H3643   1.108       .  S
C3638      H3644   1.111       .  S
C3645      C3646   1.420       .  A
C3645      C3650   1.424       .  A
C3645      H3652   1.082       .  S
C3646      C3647   1.425       .  A
C3647      C3648   1.416       .  A
C3647      C3654   1.504       .  S
C3648      C3649   1.407       .  A
C3648      H3653   1.078       .  S
C3649      C3650   1.413       .  A
C3650      C3651   1.503       .  S
C3651      H3655   1.110       .  S
C3651      H3656   1.110       .  S
C3651      H3657   1.105       .  S
C3654      H3658   1.110       .  S
C3654      H3659   1.104       .  S
C3654      H3660   1.111       .  S
C3661      C3662   1.414       .  A
C3661      C3666   1.391       .  A
C3661      H3668   1.081       .  S
C3662      C3663   1.412       .  A
C3663      C3664   1.407       .  A
C3663      C3670   1.504       .  S
C3664      C3665   1.407       .  A
C3664      H3669   1.083       .  S
C3665      C3666   1.403       .  A
C3666      C3667   1.509       .  S
C3667      H3671   1.110       .  S
C3667      H3672   1.108       .  S
C3667      H3673   1.111       .  S
C3670      H3674   1.110       .  S
C3670      H3675   1.106       .  S
C3670      H3676   1.111       .  S
C3677      C3678   1.418       .  A
C3677      C3682   1.434       .  A
C3677      H3684   1.082       .  S
C3678      C3679   1.448       .  A
C3679      C3680   1.427       .  A
C3679      C3686   1.507       .  S
C3680      C3681   1.402       .  A
C3680      H3685   1.084       .  S
C3681      C3682   1.426       .  A
C3682      C3683   1.504       .  S
C3683      H3687   1.111       .  S
C3683      H3688   1.105       .  S
C3683      H3689   1.110       .  S
C3686      H3690   1.108       .  S
C3686      H3691   1.111       .  S
C3686      H3692   1.102       .  S
C3693      C3694   1.407       .  A
C3693      C3698   1.406       .  A
C3693      H3700   1.083       .  S
C3694      C3695   1.418       .  A
C3695      C3696   1.409       .  A
C3695      C3702   1.507       .  S
C3696      C3697   1.403       .  A
C3696      H3701   1.080       .  S
C3697      C3698   1.413       .  A
C3698      C3699   1.505       .  S
C3699      H3703   1.110       .  S
C3699      H3704   1.107       .  S
C3699      H3705   1.110       .  S
C3702      H3706   1.107       .  S
C3702      H3707   1.110   1_554  S
C3702      H3708   1.111       .  S
C3709      C3710   1.407       .  A
C3709      C3714   1.429       .  A
C3709      H3716   1.084       .  S
C3710      C3711   1.422       .  A
C3711      C3712   1.427       .  A
C3711      C3718   1.504       .  S
C3712      C3713   1.419       .  A
C3712      H3717   1.080       .  S
C3713      C3714   1.437       .  A
C3714      C3715   1.507       .  S
C3715      H3719   1.111       .  S
C3715      H3720   1.110       .  S
C3715      H3721   1.103       .  S
C3718      H3722   1.108       .  S
C3718      H3723   1.110       .  S
C3718      H3724   1.110       .  S
C3725      C3726   1.396       .  A
C3725      C3730   1.397       .  A
C3725      H3732   1.084       .  S
C3726      C3727   1.408       .  A
C3727      C3728   1.395       .  A
C3727      C3734   1.507       .  S
C3728      C3729   1.402       .  A
C3728      H3733   1.079       .  S
C3729      C3730   1.415       .  A
C3730      C3731   1.507       .  S
C3731      H3735   1.110       .  S
C3731      H3736   1.110       .  S
C3731      H3737   1.109       .  S
C3734      H3738   1.110       .  S
C3734      H3739   1.110       .  S
C3734      H3740   1.111       .  S
C3741      C3742   1.392       .  A
C3741      C3746   1.396       .  A
C3741      H3748   1.084       .  S
C3742      C3743   1.410       .  A
C3743      C3744   1.405       .  A
C3743      C3750   1.503       .  S
C3744      C3745   1.406       .  A
C3744      H3749   1.083       .  S
C3745      C3746   1.427       .  A
C3746      C3747   1.513       .  S
C3747      H3751   1.111       .  S
C3747      H3752   1.109       .  S
C3747      H3753   1.111       .  S
C3750      H3754   1.107       .  S
C3750      H3755   1.109       .  S
C3750      H3756   1.111       .  S
C3757      C3758   1.401       .  A
C3757      C3762   1.395       .  A
C3757      H3764   1.085       .  S
C3758      C3759   1.408       .  A
C3759      C3760   1.398       .  A
C3759      C3766   1.506       .  S
C3760      C3761   1.400       .  A
C3760      H3765   1.082       .  S
C3761      C3762   1.408       .  A
C3762      C3763   1.504       .  S
C3763      H3767   1.110       .  S
C3763      H3768   1.110       .  S
C3763      H3769   1.108       .  S
C3766      H3770   1.110       .  S
C3766      H3771   1.110       .  S
C3766      H3772   1.111       .  S
C3773      C3774   1.412       .  A
C3773      C3778   1.431       .  A
C3773      H3780   1.084       .  S
C3774      C3775   1.414       .  A
C3775      C3776   1.416       .  A
C3775      C3782   1.507       .  S
C3776      C3777   1.423       .  A
C3776      H3781   1.080       .  S
C3777      C3778   1.433       .  A
C3778      C3779   1.505       .  S
C3779      H3783   1.111   1_556  S
C3779      H3784   1.105   1_556  S
C3779      H3785   1.110       .  S
C3782      H3786   1.110       .  S
C3782      H3787   1.106       .  S
C3782      H3788   1.111       .  S
C3789      C3790   1.408       .  A
C3789      C3794   1.421       .  A
C3789      H3796   1.084       .  S
C3790      C3791   1.420       .  A
C3791      C3792   1.416       .  A
C3791      C3798   1.507       .  S
C3792      C3793   1.407       .  A
C3792      H3797   1.083       .  S
C3793      C3794   1.421       .  A
C3794      C3795   1.504       .  S
C3795      H3799   1.110       .  S
C3795      H3800   1.110       .  S
C3795      H3801   1.106       .  S
C3798      H3802   1.107       .  S
C3798      H3803   1.111       .  S
C3798      H3804   1.111       .  S
C3805      C3806   1.398       .  A
C3805      C3810   1.393       .  A
C3805      H3812   1.084       .  S
C3806      C3807   1.407       .  A
C3807      C3808   1.395       .  A
C3807      C3814   1.507       .  S
C3808      C3809   1.402       .  A
C3808      H3813   1.085       .  S
C3809      C3810   1.413       .  A
C3810      C3811   1.507       .  S
C3811      H3815   1.111       .  S
C3811      H3816   1.110       .  S
C3811      H3817   1.106       .  S
C3814      H3818   1.110       .  S
C3814      H3819   1.108       .  S
C3814      H3820   1.110       .  S
C3821      C3822   1.403       .  A
C3821      C3826   1.403       .  A
C3821      H3828   1.083       .  S
C3822      C3823   1.407       .  A
C3823      C3824   1.398       .  A
C3823      C3830   1.506       .  S
C3824      C3825   1.408       .  A
C3824      H3829   1.085       .  S
C3825      C3826   1.410       .  A
C3826      C3827   1.506       .  S
C3827      H3831   1.111       .  S
C3827      H3832   1.110       .  S
C3827      H3833   1.110       .  S
C3830      H3834   1.108       .  S
C3830      H3835   1.110       .  S
C3830      H3836   1.111       .  S
C3837      C3838   1.404       .  A
C3837      C3842   1.406       .  A
C3837      H3844   1.082       .  S
C3838      C3839   1.415       .  A
C3839      C3840   1.416       .  A
C3839      C3846   1.505       .  S
C3840      C3841   1.408       .  A
C3840      H3845   1.083       .  S
C3841      C3842   1.416       .  A
C3842      C3843   1.509       .  S
C3843      H3847   1.111       .  S
C3843      H3848   1.109       .  S
C3843      H3849   1.110       .  S
C3846      H3850   1.110       .  S
C3846      H3851   1.108       .  S
C3846      H3852   1.111       .  S
C3853      C3854   1.409       .  A
C3853      C3858   1.415       .  A
C3853      H3860   1.083       .  S
C3854      C3855   1.423       .  A
C3855      C3856   1.414       .  A
C3855      C3862   1.505       .  S
C3856      C3857   1.403       .  A
C3856      H3861   1.084       .  S
C3857      C3858   1.414       .  A
C3858      C3859   1.502       .  S
C3859      H3863   1.111       .  S
C3859      H3864   1.111       .  S
C3859      H3865   1.106       .  S
C3862      H3866   1.106       .  S
C3862      H3867   1.110       .  S
C3862      H3868   1.110       .  S
C3869      C3870   1.416       .  A
C3869      C3874   1.417       .  A
C3869      H3876   1.084       .  S
C3870      C3871   1.422       .  A
C3871      C3872   1.411       .  A
C3871      C3878   1.507       .  S
C3872      C3873   1.412       .  A
C3872      H3877   1.079       .  S
C3873      C3874   1.422       .  A
C3874      C3875   1.504       .  S
C3875      H3879   1.111       .  S
C3875      H3880   1.106       .  S
C3875      H3881   1.110       .  S
C3878      H3882   1.105       .  S
C3878      H3883   1.110       .  S
C3878      H3884   1.111       .  S
C3885      C3886   1.408       .  A
C3885      C3890   1.400       .  A
C3885      H3892   1.084       .  S
C3886      C3887   1.414       .  A
C3887      C3888   1.407       .  A
C3887      C3894   1.506       .  S
C3888      C3889   1.404       .  A
C3888      H3893   1.080       .  S
C3889      C3890   1.407       .  A
C3890      C3891   1.508       .  S
C3891      H3895   1.111       .  S
C3891      H3896   1.111       .  S
C3891      H3897   1.110       .  S
C3894      H3898   1.106       .  S
C3894      H3899   1.110       .  S
C3894      H3900   1.110       .  S
C3901      C3902   1.403       .  A
C3901      C3906   1.401       .  A
C3901      H3908   1.084       .  S
C3902      C3903   1.408       .  A
C3903      C3904   1.400       .  A
C3903      C3910   1.506       .  S
C3904      C3905   1.403       .  A
C3904      H3909   1.083       .  S
C3905      C3906   1.409       .  A
C3906      C3907   1.502       .  S
C3907      H3911   1.110       .  S
C3907      H3912   1.109       .  S
C3907      H3913   1.107       .  S
C3910      H3914   1.109       .  S
C3910      H3915   1.111       .  S
C3910      H3916   1.111       .  S
C3917      C3918   1.397       .  A
C3917      C3922   1.401       .  A
C3917      H3924   1.084       .  S
C3918      C3919   1.409       .  A
C3919      C3920   1.390       .  A
C3919      C3926   1.509       .  S
C3920      C3921   1.400       .  A
C3920      H3925   1.079       .  S
C3921      C3922   1.414       .  A
C3922      C3923   1.501       .  S
C3923      H3927   1.110       .  S
C3923      H3928   1.108       .  S
C3923      H3929   1.110       .  S
C3926      H3930   1.110       .  S
C3926      H3931   1.102       .  S
C3926      H3932   1.111       .  S
C3933      C3934   1.428       .  A
C3933      C3938   1.445       .  A
C3933      H3940   1.079       .  S
C3934      C3935   1.450       .  A
C3935      C3936   1.436       .  A
C3935      C3942   1.504       .  S
C3936      C3937   1.408       .  A
C3936      H3941   1.081       .  S
C3937      C3938   1.430       .  A
C3938      C3939   1.505       .  S
C3939      H3943   1.110       .  S
C3939      H3944   1.108       .  S
C3939      H3945   1.111       .  S
C3942      H3946   1.111       .  S
C3942      H3947   1.092       .  S
C3942      H3948   1.111       .  S
C3949      C3950   1.414       .  A
C3949      C3954   1.427       .  A
C3949      H3956   1.084       .  S
C3950      C3951   1.438       .  A
C3951      C3952   1.422       .  A
C3951      C3958   1.509       .  S
C3952      C3953   1.402       .  A
C3952      H3957   1.083       .  S
C3953      C3954   1.427       .  A
C3954      C3955   1.503       .  S
C3955      H3959   1.109       .  S
C3955      H3960   1.110       .  S
C3955      H3961   1.109       .  S
C3958      H3962   1.110       .  S
C3958      H3963   1.110       .  S
C3958      H3964   1.111       .  S
C3965      C3966   1.409       .  A
C3965      C3970   1.394       .  A
C3965      H3972   1.084       .  S
C3966      C3967   1.419       .  A
C3967      C3968   1.396       .  A
C3967      C3974   1.509       .  S
C3968      C3969   1.394       .  A
C3968      H3973   1.081       .  S
C3969      C3970   1.403       .  A
C3970      C3971   1.508       .  S
C3971      H3975   1.110       .  S
C3971      H3976   1.109       .  S
C3971      H3977   1.110       .  S
C3974      H3978   1.102       .  S
C3974      H3979   1.109       .  S
C3974      H3980   1.110       .  S
C3981      C3982   1.426       .  A
C3981      C3986   1.445       .  A
C3981      H3988   1.072       .  S
C3982      C3983   1.444       .  A
C3983      C3984   1.446       .  A
C3983      C3990   1.506       .  S
C3984      C3985   1.418       .  A
C3984      H3989   1.077       .  S
C3985      C3986   1.432       .  A
C3986      C3987   1.504       .  S
C3987      H3991   1.110       .  S
C3987      H3992   1.110       .  S
C3987      H3993   1.107       .  S
C3990      H3994   1.103       .  S
C3990      H3995   1.111       .  S
C3990      H3996   1.110       .  S
C3997      C3998   1.407       .  A
C3997      C4002   1.431       .  A
C3997      H4004   1.084       .  S
C3998      C3999   1.419       .  A
C3999      C4000   1.428       .  A
C3999      C4006   1.502       .  S
C4000      C4001   1.420       .  A
C4000      H4005   1.078       .  S
C4001      C4002   1.442       .  A
C4002      C4003   1.505       .  S
C4003      H4007   1.110       .  S
C4003      H4008   1.100       .  S
C4003      H4009   1.110       .  S
C4006      H4010   1.107       .  S
C4006      H4011   1.102       .  S
C4006      H4012   1.110       .  S
C4013      C4014   1.397       .  A
C4013      C4018   1.398       .  A
C4013      H4020   1.082       .  S
C4014      C4015   1.411       .  A
C4015      C4016   1.403       .  A
C4015      C4022   1.507       .  S
C4016      C4017   1.405       .  A
C4016      H4021   1.084       .  S
C4017      C4018   1.415       .  A
C4018      C4019   1.505       .  S
C4019      H4023   1.111       .  S
C4019      H4024   1.110       .  S
C4019      H4025   1.103       .  S
C4022      H4026   1.110       .  S
C4022      H4027   1.109       .  S
C4022      H4028   1.110       .  S
C4029      C4030   1.404       .  A
C4029      C4034   1.404       .  A
C4029      H4036   1.083       .  S
C4030      C4031   1.419       .  A
C4031      C4032   1.400       .  A
C4031      C4038   1.507       .  S
C4032      C4033   1.398       .  A
C4032      H4037   1.084       .  S
C4033      C4034   1.410       .  A
C4034      C4035   1.505       .  S
C4035      H4039   1.111       .  S
C4035      H4040   1.110       .  S
C4035      H4041   1.110       .  S
C4038      H4042   1.111       .  S
C4038      H4043   1.105       .  S
C4038      H4044   1.110       .  S
C4045      C4046   1.401       .  A
C4045      C4050   1.397       .  A
C4045      H4052   1.081       .  S
C4046      C4047   1.416       .  A
C4047      C4048   1.408       .  A
C4047      C4054   1.506       .  S
C4048      C4049   1.404       .  A
C4048      H4053   1.084       .  S
C4049      C4050   1.412       .  A
C4050      C4051   1.503       .  S
C4051      H4055   1.111       .  S
C4051      H4056   1.106       .  S
C4051      H4057   1.106       .  S
C4054      H4058   1.110       .  S
C4054      H4059   1.108       .  S
C4054      H4060   1.110       .  S
C4061      C4062   1.403       .  A
C4061      C4066   1.399       .  A
C4061      H4068   1.084       .  S
C4062      C4063   1.418       .  A
C4063      C4064   1.399       .  A
C4063      C4070   1.505       .  S
C4064      C4065   1.398       .  A
C4064      H4069   1.084       .  S
C4065      C4066   1.406       .  A
C4066      C4067   1.504       .  S
C4067      H4071   1.111       .  S
C4067      H4072   1.111       .  S
C4067      H4073   1.109       .  S
C4070      H4074   1.111       .  S
C4070      H4075   1.103       .  S
C4070      H4076   1.110       .  S
C4077      C4078   1.404       .  A
C4077      C4082   1.394       .  A
C4077      H4084   1.084       .  S
C4078      C4079   1.410       .  A
C4079      C4080   1.400       .  A
C4079      C4086   1.506       .  S
C4080      C4081   1.403       .  A
C4080      H4085   1.084       .  S
C4081      C4082   1.403       .  A
C4082      C4083   1.505       .  S
C4083      H4087   1.111       .  S
C4083      H4088   1.110       .  S
C4083      H4089   1.110       .  S
C4086      H4090   1.110       .  S
C4086      H4091   1.108       .  S
C4086      H4092   1.111       .  S
C4093      C4094   1.404       .  A
C4093      C4098   1.404       .  A
C4093      H4100   1.084       .  S
C4094      C4095   1.416       .  A
C4095      C4096   1.405       .  A
C4095      C4102   1.505       .  S
C4096      C4097   1.404       .  A
C4096      H4101   1.085       .  S
C4097      C4098   1.409       .  A
C4098      C4099   1.500       .  S
C4099      H4103   1.111       .  S
C4099      H4104   1.110       .  S
C4099      H4105   1.110       .  S
C4102      H4106   1.111       .  S
C4102      H4107   1.102       .  S
C4102      H4108   1.110       .  S
C4109      C4110   1.414       .  A
C4109      C4114   1.419       .  A
C4109      H4116   1.083       .  S
C4110      C4111   1.423   1_455  A
C4111      C4112   1.425       .  A
C4111      C4118   1.503       .  S
C4112      C4113   1.411   1_655  A
C4112      H4117   1.084       .  S
C4113      C4114   1.417       .  A
C4114      C4115   1.504       .  S
C4115      H4119   1.111       .  S
C4115      H4120   1.109       .  S
C4115      H4121   1.110       .  S
C4118      H4122   1.106       .  S
C4118      H4123   1.110       .  S
C4118      H4124   1.110       .  S
C4125      C4126   1.424       .  A
C4125      C4130   1.435       .  A
C4125      H4132   1.081       .  S
C4126      C4127   1.439       .  A
C4127      C4128   1.442       .  A
C4127      C4134   1.503       .  S
C4128      C4129   1.415       .  A
C4128      H4133   1.083       .  S
C4129      C4130   1.425       .  A
C4130      C4131   1.505       .  S
C4131      H4135   1.111       .  S
C4131      H4136   1.110       .  S
C4131      H4137   1.107       .  S
C4134      H4138   1.109       .  S
C4134      H4139   1.105       .  S
C4134      H4140   1.111       .  S
C4141      C4142   1.407       .  A
C4141      C4146   1.395       .  A
C4141      H4148   1.080       .  S
C4142      C4143   1.416       .  A
C4143      C4144   1.404       .  A
C4143      C4150   1.505       .  S
C4144      C4145   1.402       .  A
C4144      H4149   1.085       .  S
C4145      C4146   1.417       .  A
C4146      C4147   1.508   1_545  S
C4147      H4151   1.111   1_565  S
C4147      H4152   1.101       .  S
C4147      H4153   1.110       .  S
C4150      H4154   1.110       .  S
C4150      H4155   1.109       .  S
C4150      H4156   1.111       .  S
C4157      C4158   1.406       .  A
C4157      C4162   1.406       .  A
C4157      H4164   1.084       .  S
C4158      C4159   1.417       .  A
C4159      C4160   1.410       .  A
C4159      C4166   1.506       .  S
C4160      C4161   1.403       .  A
C4160      H4165   1.081       .  S
C4161      C4162   1.411       .  A
C4162      C4163   1.504       .  S
C4163      H4167   1.109       .  S
C4163      H4168   1.110       .  S
C4163      H4169   1.109       .  S
C4166      H4170   1.111       .  S
C4166      H4171   1.107       .  S
C4166      H4172   1.111       .  S
C4173      C4174   1.407       .  A
C4173      C4178   1.417       .  A
C4173      H4180   1.084       .  S
C4174      C4175   1.420       .  A
C4175      C4176   1.408       .  A
C4175      C4182   1.509       .  S
C4176      C4177   1.404       .  A
C4176      H4181   1.083       .  S
C4177      C4178   1.418       .  A
C4178      C4179   1.505       .  S
C4179      H4183   1.110       .  S
C4179      H4184   1.110       .  S
C4179      H4185   1.108       .  S
C4182      H4186   1.106       .  S
C4182      H4187   1.111       .  S
C4182      H4188   1.110       .  S
C4189      C4190   1.424       .  A
C4189      C4194   1.433       .  A
C4189      H4196   1.075       .  S
C4190      C4191   1.440       .  A
C4191      C4192   1.440       .  A
C4191      C4198   1.505       .  S
C4192      C4193   1.414       .  A
C4192      H4197   1.084       .  S
C4193      C4194   1.423       .  A
C4194      C4195   1.506       .  S
C4195      H4199   1.111       .  S
C4195      H4200   1.106       .  S
C4195      H4201   1.103       .  S
C4198      H4202   1.102       .  S
C4198      H4203   1.110       .  S
C4198      H4204   1.111       .  S
C4205      C4206   1.400       .  A
C4205      C4210   1.405       .  A
C4205      H4212   1.084       .  S
C4206      C4207   1.409       .  A
C4207      C4208   1.411       .  A
C4207      C4214   1.503       .  S
C4208      C4209   1.408       .  A
C4208      H4213   1.083       .  S
C4209      C4210   1.419       .  A
C4210      C4211   1.505       .  S
C4211      H4215   1.111       .  S
C4211      H4216   1.105       .  S
C4211      H4217   1.111       .  S
C4214      H4218   1.110       .  S
C4214      H4219   1.111   1_455  S
C4214      H4220   1.111       .  S
C4221      C4222   1.413       .  A
C4221      C4226   1.398       .  A
C4221      H4228   1.080       .  S
C4222      C4223   1.428       .  A
C4223      C4224   1.412       .  A
C4223      C4230   1.508       .  S
C4224      C4225   1.401       .  A
C4224      H4229   1.084       .  S
C4225      C4226   1.409       .  A
C4226      C4227   1.509       .  S
C4227      H4231   1.109       .  S
C4227      H4232   1.105       .  S
C4227      H4233   1.110       .  S
C4230      H4234   1.103       .  S
C4230      H4235   1.110       .  S
C4230      H4236   1.111       .  S
C4237      C4238   1.397       .  A
C4237      C4242   1.395       .  A
C4237      H4244   1.085       .  S
C4238      C4239   1.416       .  A
C4239      C4240   1.394       .  A
C4239      C4246   1.504       .  S
C4240      C4241   1.392       .  A
C4240      H4245   1.084       .  S
C4241      C4242   1.412       .  A
C4242      C4243   1.504       .  S
C4243      H4247   1.111       .  S
C4243      H4248   1.110       .  S
C4243      H4249   1.105   1_655  S
C4246      H4250   1.103   1_545  S
C4246      H4251   1.110   1_545  S
C4246      H4252   1.111       .  S
C4253      C4254   1.402       .  A
C4253      C4258   1.405       .  A
C4253      H4260   1.084       .  S
C4254      C4255   1.417       .  A
C4255      C4256   1.410       .  A
C4255      C4262   1.504       .  S
C4256      C4257   1.405       .  A
C4256      H4261   1.084       .  S
C4257      C4258   1.419       .  A
C4258      C4259   1.509       .  S
C4259      H4263   1.111       .  S
C4259      H4264   1.109       .  S
C4259      H4265   1.111       .  S
C4262      H4266   1.105       .  S
C4262      H4267   1.110       .  S
C4262      H4268   1.110       .  S
C4269      C4270   1.394       .  A
C4269      C4274   1.385       .  A
C4269      H4276   1.084       .  S
C4270      C4271   1.404       .  A
C4271      C4272   1.388       .  A
C4271      C4278   1.506       .  S
C4272      C4273   1.401       .  A
C4272      H4277   1.085       .  S
C4273      C4274   1.410       .  A
C4274      C4275   1.509       .  S
C4275      H4279   1.111       .  S
C4275      H4280   1.110       .  S
C4275      H4281   1.110       .  S
C4278      H4282   1.110       .  S
C4278      H4283   1.108       .  S
C4278      H4284   1.110       .  S
C4285      C4286   1.400       .  A
C4285      C4290   1.408       .  A
C4285      H4292   1.085       .  S
C4286      C4287   1.406       .  A
C4287      C4288   1.412       .  A
C4287      C4294   1.507       .  S
C4288      C4289   1.425       .  A
C4288      H4293   1.078       .  S
C4289      C4290   1.434       .  A
C4290      C4291   1.504       .  S
C4291      H4295   1.110       .  S
C4291      H4296   1.111       .  S
C4291      H4297   1.099   1_655  S
C4294      H4298   1.107       .  S
C4294      H4299   1.108       .  S
C4294      H4300   1.110       .  S
C4301      C4302   1.410       .  A
C4301      C4306   1.424       .  A
C4301      H4308   1.083       .  S
C4302      C4303   1.418       .  A
C4303      C4304   1.423       .  A
C4303      C4310   1.504       .  S
C4304      C4305   1.411       .  A
C4304      H4309   1.083       .  S
C4305      C4306   1.423       .  A
C4306      C4307   1.506       .  S
C4307      H4311   1.110       .  S
C4307      H4312   1.110       .  S
C4307      H4313   1.108       .  S
C4310      H4314   1.110       .  S
C4310      H4315   1.111       .  S
C4310      H4316   1.111       .  S
C4317      C4318   1.397       .  A
C4317      C4322   1.392       .  A
C4317      H4324   1.082       .  S
C4318      C4319   1.402       .  A
C4319      C4320   1.397       .  A
C4319      C4326   1.505       .  S
C4320      C4321   1.407       .  A
C4320      H4325   1.083       .  S
C4321      C4322   1.409       .  A
C4322      C4323   1.506       .  S
C4323      H4327   1.111       .  S
C4323      H4328   1.106       .  S
C4323      H4329   1.110       .  S
C4326      H4330   1.110       .  S
C4326      H4331   1.110       .  S
C4326      H4332   1.111       .  S
C4333      C4334   1.398       .  A
C4333      C4338   1.407       .  A
C4333      H4340   1.083       .  S
C4334      C4335   1.416       .  A
C4335      C4336   1.401       .  A
C4335      C4342   1.506       .  S
C4336      C4337   1.401       .  A
C4336      H4341   1.085       .  S
C4337      C4338   1.418       .  A
C4338      C4339   1.507       .  S
C4339      H4343   1.111       .  S
C4339      H4344   1.109       .  S
C4339      H4345   1.109       .  S
C4342      H4346   1.109       .  S
C4342      H4347   1.109       .  S
C4342      H4348   1.110       .  S
C4349      C4350   1.395       .  A
C4349      C4354   1.393       .  A
C4349      H4356   1.085       .  S
C4350      C4351   1.415       .  A
C4351      C4352   1.391       .  A
C4351      C4358   1.509       .  S
C4352      C4353   1.395       .  A
C4352      H4357   1.085       .  S
C4353      C4354   1.414       .  A
C4354      C4355   1.510       .  S
C4355      H4359   1.111       .  S
C4355      H4360   1.108       .  S
C4355      H4361   1.110       .  S
C4358      H4362   1.108       .  S
C4358      H4363   1.110       .  S
C4358      H4364   1.110       .  S
C4365      C4366   1.418       .  A
C4365      C4370   1.415       .  A
C4365      H4372   1.071       .  S
C4366      C4367   1.429       .  A
C4367      C4368   1.429       .  A
C4367      C4374   1.503       .  S
C4368      C4369   1.421       .  A
C4368      H4373   1.084       .  S
C4369      C4370   1.418       .  A
C4370      C4371   1.506       .  S
C4371      H4375   1.112       .  S
C4371      H4376   1.106       .  S
C4371      H4377   1.109       .  S
C4374      H4378   1.105       .  S
C4374      H4379   1.110       .  S
C4374      H4380   1.111       .  S
C4381      C4382   1.416       .  A
C4381      C4386   1.444       .  A
C4381      H4388   1.083       .  S
C4382      C4383   1.427       .  A
C4383      C4384   1.433       .  A
C4383      C4390   1.502       .  S
C4384      C4385   1.419       .  A
C4384      H4389   1.072       .  S
C4385      C4386   1.440       .  A
C4386      C4387   1.506       .  S
C4387      H4391   1.111       .  S
C4387      H4392   1.110       .  S
C4387      H4393   1.106       .  S
C4390      H4394   1.102       .  S
C4390      H4395   1.110       .  S
C4390      H4396   1.110       .  S
C4397      C4398   1.396       .  A
C4397      C4402   1.391       .  A
C4397      H4404   1.085       .  S
C4398      C4399   1.414       .  A
C4399      C4400   1.389       .  A
C4399      C4406   1.508       .  S
C4400      C4401   1.393       .  A
C4400      H4405   1.084       .  S
C4401      C4402   1.407       .  A
C4402      C4403   1.502       .  S
C4403      H4407   1.111       .  S
C4403      H4408   1.110   1_655  S
C4403      H4409   1.105       .  S
C4406      H4410   1.107       .  S
C4406      H4411   1.110       .  S
C4406      H4412   1.111       .  S
C4413      C4414   1.409       .  A
C4413      C4418   1.406       .  A
C4413      H4420   1.084       .  S
C4414      C4415   1.416       .  A
C4415      C4416   1.414       .  A
C4415      C4422   1.505       .  S
C4416      C4417   1.407       .  A
C4416      H4421   1.080       .  S
C4417      C4418   1.410       .  A
C4418      C4419   1.505       .  S
C4419      H4423   1.111       .  S
C4419      H4424   1.110       .  S
C4419      H4425   1.108       .  S
C4422      H4426   1.108       .  S
C4422      H4427   1.110       .  S
C4422      H4428   1.111       .  S
C4429      C4430   1.401       .  A
C4429      C4434   1.395       .  A
C4429      H4436   1.081       .  S
C4430      C4431   1.406       .  A
C4431      C4432   1.387       .  A
C4431      C4438   1.508       .  S
C4432      C4433   1.402       .  A
C4432      H4437   1.085       .  S
C4433      C4434   1.401       .  A
C4434      C4435   1.504       .  S
C4435      H4439   1.111       .  S
C4435      H4440   1.110       .  S
C4435      H4441   1.110       .  S
C4438      H4442   1.108       .  S
C4438      H4443   1.110       .  S
C4438      H4444   1.110       .  S
C4445      C4446   1.422       .  A
C4445      C4450   1.442       .  A
C4445      H4452   1.079       .  S
C4446      C4447   1.444       .  A
C4447      C4448   1.442       .  A
C4447      C4454   1.507       .  S
C4448      C4449   1.414       .  A
C4448      H4453   1.084       .  S
C4449      C4450   1.428       .  A
C4450      C4451   1.501       .  S
C4451      H4455   1.111       .  S
C4451      H4456   1.098       .  S
C4451      H4457   1.110       .  S
C4454      H4458   1.110       .  S
C4454      H4459   1.104       .  S
C4454      H4460   1.111       .  S
C4461      C4462   1.409       .  A
C4461      C4466   1.413       .  A
C4461      H4468   1.084       .  S
C4462      C4463   1.419       .  A
C4463      C4464   1.415       .  A
C4463      C4470   1.506       .  S
C4464      C4465   1.410       .  A
C4464      H4469   1.082       .  S
C4465      C4466   1.419       .  A
C4466      C4467   1.503       .  S
C4467      H4471   1.109       .  S
C4467      H4472   1.107       .  S
C4467      H4473   1.110       .  S
C4470      H4474   1.110       .  S
C4470      H4475   1.110       .  S
C4470      H4476   1.111       .  S
C4477      C4478   1.395       .  A
C4477      C4482   1.387       .  A
C4477      H4484   1.085       .  S
C4478      C4479   1.411       .  A
C4479      C4480   1.384       .  A
C4479      C4486   1.507       .  S
C4480      C4481   1.392       .  A
C4480      H4485   1.085       .  S
C4481      C4482   1.406       .  A
C4482      C4483   1.508       .  S
C4483      H4487   1.111       .  S
C4483      H4488   1.111       .  S
C4483      H4489   1.110       .  S
C4486      H4490   1.107       .  S
C4486      H4491   1.110       .  S
C4486      H4492   1.110       .  S
C4493      C4494   1.412       .  A
C4493      C4498   1.438       .  A
C4493      H4500   1.083       .  S
C4494      C4495   1.428       .  A
C4495      C4496   1.435       .  A
C4495      C4502   1.503       .  S
C4496      C4497   1.421       .  A
C4496      H4501   1.078       .  S
C4497      C4498   1.440       .  A
C4498      C4499   1.507       .  S
C4499      H4503   1.111       .  S
C4499      H4504   1.105       .  S
C4499      H4505   1.110       .  S
C4502      H4506   1.103       .  S
C4502      H4507   1.111       .  S
C4502      H4508   1.110       .  S
C4509      C4510   1.409       .  A
C4509      C4514   1.420       .  A
C4509      H4516   1.082       .  S
C4510      C4511   1.423       .  A
C4511      C4512   1.417       .  A
C4511      C4518   1.506       .  S
C4512      C4513   1.405       .  A
C4512      H4517   1.084       .  S
C4513      C4514   1.416       .  A
C4514      C4515   1.503       .  S
C4515      H4519   1.111       .  S
C4515      H4520   1.110       .  S
C4515      H4521   1.110       .  S
C4518      H4522   1.109       .  S
C4518      H4523   1.110       .  S
C4518      H4524   1.110       .  S
C4525      C4526   1.401       .  A
C4525      C4530   1.403       .  A
C4525      H4532   1.084       .  S
C4526      C4527   1.405       .  A
C4527      C4528   1.384       .  A
C4527      C4534   1.511       .  S
C4528      C4529   1.406       .  A
C4528      H4533   1.085       .  S
C4529      C4530   1.412       .  A
C4530      C4531   1.504       .  S
C4531      H4535   1.111       .  S
C4531      H4536   1.110       .  S
C4531      H4537   1.103       .  S
C4534      H4538   1.110       .  S
C4534      H4539   1.107       .  S
C4534      H4540   1.111       .  S
C4541      C4542   1.405       .  A
C4541      C4546   1.392       .  A
C4541      H4548   1.074       .  S
C4542      C4543   1.411       .  A
C4543      C4544   1.398       .  A
C4543      C4550   1.505       .  S
C4544      C4545   1.400       .  A
C4544      H4549   1.085       .  S
C4545      C4546   1.403       .  A
C4546      C4547   1.509       .  S
C4547      H4551   1.111       .  S
C4547      H4552   1.110       .  S
C4547      H4553   1.110       .  S
C4550      H4554   1.109       .  S
C4550      H4555   1.110       .  S
C4550      H4556   1.110       .  S
C4557      C4558   1.404       .  A
C4557      C4562   1.385       .  A
C4557      H4564   1.082       .  S
C4558      C4559   1.408       .  A
C4559      C4560   1.395       .  A
C4559      C4566   1.506       .  S
C4560      C4561   1.401       .  A
C4560      H4565   1.084       .  S
C4561      C4562   1.400       .  A
C4562      C4563   1.508       .  S
C4563      H4567   1.111       .  S
C4563      H4568   1.110       .  S
C4563      H4569   1.110       .  S
C4566      H4570   1.109       .  S
C4566      H4571   1.111       .  S
C4566      H4572   1.110       .  S
C4573      C4574   1.401       .  A
C4573      C4578   1.395       .  A
C4573      H4580   1.085       .  S
C4574      C4575   1.418       .  A
C4575      C4576   1.390       .  A
C4575      C4582   1.500       .  S
C4576      C4577   1.388       .  A
C4576      H4581   1.084       .  S
C4577      C4578   1.405       .  A
C4578      C4579   1.503       .  S
C4579      H4583   1.111       .  S
C4579      H4584   1.110       .  S
C4579      H4585   1.102       .  S
C4582      H4586   1.108       .  S
C4582      H4587   1.102       .  S
C4582      H4588   1.111       .  S
C4589      C4590   1.397       .  A
C4589      C4594   1.399       .  A
C4589      H4596   1.084       .  S
C4590      C4591   1.400       .  A
C4591      C4592   1.387       .  A
C4591      C4598   1.507       .  S
C4592      C4593   1.405       .  A
C4592      H4597   1.077       .  S
C4593      C4594   1.413       .  A
C4594      C4595   1.506       .  S
C4595      H4599   1.108       .  S
C4595      H4600   1.110       .  S
C4595      H4601   1.110       .  S
C4598      H4602   1.110       .  S
C4598      H4603   1.110       .  S
C4598      H4604   1.111       .  S
C4605      C4606   1.399       .  A
C4605      C4610   1.397       .  A
C4605      H4612   1.085       .  S
C4606      C4607   1.418       .  A
C4607      C4608   1.388       .  A
C4607      C4614   1.508       .  S
C4608      C4609   1.394       .  A
C4608      H4613   1.086       .  S
C4609      C4610   1.411       .  A
C4610      C4611   1.507       .  S
C4611      H4615   1.111       .  S
C4611      H4616   1.104       .  S
C4611      H4617   1.110       .  S
C4614      H4618   1.103       .  S
C4614      H4619   1.111       .  S
C4614      H4620   1.110       .  S
C4621      C4622   1.415       .  A
C4621      C4626   1.408   1_565  A
C4621      H4628   1.080   1_565  S
C4622      C4623   1.431       .  A
C4623      C4624   1.417       .  A
C4623      C4630   1.505       .  S
C4624      C4625   1.405       .  A
C4624      H4629   1.084       .  S
C4625      C4626   1.415   1_565  A
C4626      C4627   1.508       .  S
C4627      H4631   1.110       .  S
C4627      H4632   1.105       .  S
C4627      H4633   1.110       .  S
C4630      H4634   1.108       .  S
C4630      H4635   1.110       .  S
C4630      H4636   1.111       .  S
C4637      C4638   1.403       .  A
C4637      C4642   1.400       .  A
C4637      H4644   1.084       .  S
C4638      C4639   1.409       .  A
C4639      C4640   1.408       .  A
C4639      C4646   1.504       .  S
C4640      C4641   1.406       .  A
C4640      H4645   1.084       .  S
C4641      C4642   1.414       .  A
C4642      C4643   1.507       .  S
C4643      H4647   1.110       .  S
C4643      H4648   1.110       .  S
C4643      H4649   1.108       .  S
C4646      H4650   1.110       .  S
C4646      H4651   1.110       .  S
C4646      H4652   1.111       .  S
C4653      C4654   1.417       .  A
C4653      C4658   1.402       .  A
C4653      H4660   1.076       .  S
C4654      C4655   1.438       .  A
C4655      C4656   1.413       .  A
C4655      C4662   1.509       .  S
C4656      C4657   1.396       .  A
C4656      H4661   1.082       .  S
C4657      C4658   1.405       .  A
C4658      C4659   1.510       .  S
C4659      H4663   1.111       .  S
C4659      H4664   1.105       .  S
C4659      H4665   1.111       .  S
C4662      H4666   1.103       .  S
C4662      H4667   1.108       .  S
C4662      H4668   1.111       .  S
C4669      C4670   1.404       .  A
C4669      C4674   1.416       .  A
C4669      H4676   1.084       .  S
C4670      C4671   1.412       .  A
C4671      C4672   1.413       .  A
C4671      C4678   1.504       .  S
C4672      C4673   1.410       .  A
C4672      H4677   1.083       .  S
C4673      C4674   1.423       .  A
C4674      C4675   1.504       .  S
C4675      H4679   1.110       .  S
C4675      H4680   1.110       .  S
C4675      H4681   1.106       .  S
C4678      H4682   1.110       .  S
C4678      H4683   1.110       .  S
C4678      H4684   1.111       .  S
C4685      C4686   1.406       .  A
C4685      C4690   1.398       .  A
C4685      H4692   1.084       .  S
C4686      C4687   1.410       .  A
C4687      C4688   1.404       .  A
C4687      C4694   1.504       .  S
C4688      C4689   1.403       .  A
C4688      H4693   1.084       .  S
C4689      C4690   1.411       .  A
C4690      C4691   1.507       .  S
C4691      H4695   1.110       .  S
C4691      H4696   1.107       .  S
C4691      H4697   1.110       .  S
C4694      H4698   1.108       .  S
C4694      H4699   1.110       .  S
C4694      H4700   1.111       .  S
C4701      C4702   1.419       .  A
C4701      C4706   1.427       .  A
C4701      H4708   1.079       .  S
C4702      C4703   1.440       .  A
C4703      C4704   1.438       .  A
C4703      C4710   1.505       .  S
C4704      C4705   1.412       .  A
C4704      H4709   1.083       .  S
C4705      C4706   1.426       .  A
C4706      C4707   1.505       .  S
C4707      H4711   1.110       .  S
C4707      H4712   1.107       .  S
C4707      H4713   1.110       .  S
C4710      H4714   1.111       .  S
C4710      H4715   1.109       .  S
C4710      H4716   1.105       .  S
C4717      C4718   1.410       .  A
C4717      C4722   1.396       .  A
C4717      H4724   1.080       .  S
C4718      C4719   1.415       .  A
C4719      C4720   1.402       .  A
C4719      C4726   1.506       .  S
C4720      C4721   1.403       .  A
C4720      H4725   1.080       .  S
C4721      C4722   1.402       .  A
C4722      C4723   1.505   1_545  S
C4723      H4727   1.110   1_565  S
C4723      H4728   1.108       .  S
C4723      H4729   1.110       .  S
C4726      H4730   1.107       .  S
C4726      H4731   1.110       .  S
C4726      H4732   1.111       .  S
C4733      C4734   1.417       .  A
C4733      C4738   1.426       .  A
C4733      H4740   1.082       .  S
C4734      C4735   1.440       .  A
C4735      C4736   1.418       .  A
C4735      C4742   1.510       .  S
C4736      C4737   1.401       .  A
C4736      H4741   1.084       .  S
C4737      C4738   1.419       .  A
C4738      C4739   1.505       .  S
C4739      H4743   1.110       .  S
C4739      H4744   1.109       .  S
C4739      H4745   1.110       .  S
C4742      H4746   1.101       .  S
C4742      H4747   1.110       .  S
C4742      H4748   1.111       .  S
C4749      C4750   1.403       .  A
C4749      C4754   1.401       .  A
C4749      H4756   1.084       .  S
C4750      C4751   1.409       .  A
C4751      C4752   1.397       .  A
C4751      C4758   1.506       .  S
C4752      C4753   1.403       .  A
C4752      H4757   1.082       .  S
C4753      C4754   1.408       .  A
C4754      C4755   1.505       .  S
C4755      H4759   1.111       .  S
C4755      H4760   1.110       .  S
C4755      H4761   1.109       .  S
C4758      H4762   1.106       .  S
C4758      H4763   1.102       .  S
C4758      H4764   1.111       .  S
C4765      C4766   1.403       .  A
C4765      C4770   1.407       .  A
C4765      H4772   1.085       .  S
C4766      C4767   1.409       .  A
C4767      C4768   1.394       .  A
C4767      C4774   1.504       .  S
C4768      C4769   1.404       .  A
C4768      H4773   1.085       .  S
C4769      C4770   1.417       .  A
C4770      C4771   1.506       .  S
C4771      H4775   1.111       .  S
C4771      H4776   1.109       .  S
C4771      H4777   1.111       .  S
C4774      H4778   1.102       .  S
C4774      H4779   1.110       .  S
C4774      H4780   1.110       .  S
C4781      C4782   1.403       .  A
C4781      C4786   1.408       .  A
C4781      H4788   1.083       .  S
C4782      C4783   1.414       .  A
C4783      C4784   1.401       .  A
C4783      C4790   1.504       .  S
C4784      C4785   1.402       .  A
C4784      H4789   1.085       .  S
C4785      C4786   1.413       .  A
C4786      C4787   1.505       .  S
C4787      H4791   1.111       .  S
C4787      H4792   1.111       .  S
C4787      H4793   1.110       .  S
C4790      H4794   1.107       .  S
C4790      H4795   1.110       .  S
C4790      H4796   1.110       .  S
C4797      C4798   1.416       .  A
C4797      C4802   1.421       .  A
C4797      H4804   1.078       .  S
C4798      C4799   1.442       .  A
C4799      C4800   1.419       .  A
C4799      C4806   1.506       .  S
C4800      C4801   1.399       .  A
C4800      H4805   1.085       .  S
C4801      C4802   1.418       .  A
C4802      C4803   1.504       .  S
C4803      H4807   1.111       .  S
C4803      H4808   1.105       .  S
C4803      H4809   1.110       .  S
C4806      H4810   1.111       .  S
C4806      H4811   1.096   1_565  S
C4806      H4812   1.109       .  S
C4813      C4814   1.408       .  A
C4813      C4818   1.414       .  A
C4813      H4820   1.084       .  S
C4814      C4815   1.413       .  A
C4815      C4816   1.411       .  A
C4815      C4822   1.508       .  S
C4816      C4817   1.417       .  A
C4816      H4821   1.082       .  S
C4817      C4818   1.422       .  A
C4818      C4819   1.505       .  S
C4819      H4823   1.111       .  S
C4819      H4824   1.107       .  S
C4819      H4825   1.110       .  S
C4822      H4826   1.106       .  S
C4822      H4827   1.110       .  S
C4822      H4828   1.110       .  S
C4829      C4830   1.395       .  A
C4829      C4834   1.396       .  A
C4829      H4836   1.084       .  S
C4830      C4831   1.408       .  A
C4831      C4832   1.401       .  A
C4831      C4838   1.506       .  S
C4832      C4833   1.407       .  A
C4832      H4837   1.084       .  S
C4833      C4834   1.424       .  A
C4834      C4835   1.510       .  S
C4835      H4839   1.111       .  S
C4835      H4840   1.110       .  S
C4835      H4841   1.110       .  S
C4838      H4842   1.110       .  S
C4838      H4843   1.104       .  S
C4838      H4844   1.111       .  S
C4845      C4846   1.394       .  A
C4845      C4850   1.404       .  A
C4845      H4852   1.084       .  S
C4846      C4847   1.418       .  A
C4847      C4848   1.416       .  A
C4847      C4854   1.505       .  S
C4848      C4849   1.410       .  A
C4848      H4853   1.084       .  S
C4849      C4850   1.431       .  A
C4850      C4851   1.511       .  S
C4851      H4855   1.111       .  S
C4851      H4856   1.109       .  S
C4851      H4857   1.110       .  S
C4854      H4858   1.110       .  S
C4854      H4859   1.108       .  S
C4854      H4860   1.110       .  S
C4861      C4862   1.395       .  A
C4861      C4866   1.389       .  A
C4861      H4868   1.083       .  S
C4862      C4863   1.392       .  A
C4863      C4864   1.371       .  A
C4863      C4870   1.506       .  S
C4864      C4865   1.408       .  A
C4864      H4869   1.083       .  S
C4865      C4866   1.416       .  A
C4866      C4867   1.509       .  S
C4867      H4871   1.111       .  S
C4867      H4872   1.110       .  S
C4867      H4873   1.110       .  S
C4870      H4874   1.110       .  S
C4870      H4875   1.107       .  S
C4870      H4876   1.109       .  S
C4877      C4878   1.409       .  A
C4877      C4882   1.415       .  A
C4877      H4884   1.083       .  S
C4878      C4879   1.416       .  A
C4879      C4880   1.413       .  A
C4879      C4886   1.505       .  S
C4880      C4881   1.407       .  A
C4880      H4885   1.082       .  S
C4881      C4882   1.412       .  A
C4882      C4883   1.504       .  S
C4883      H4887   1.110       .  S
C4883      H4888   1.110       .  S
C4883      H4889   1.109       .  S
C4886      H4890   1.110       .  S
C4886      H4891   1.108       .  S
C4886      H4892   1.111       .  S
C4893      C4894   1.408       .  A
C4893      C4898   1.426       .  A
C4893      H4900   1.084       .  S
C4894      C4895   1.415       .  A
C4895      C4896   1.416       .  A
C4895      C4902   1.506       .  S
C4896      C4897   1.417       .  A
C4896      H4901   1.078       .  S
C4897      C4898   1.433       .  A
C4898      C4899   1.506       .  S
C4899      H4903   1.111       .  S
C4899      H4904   1.104       .  S
C4899      H4905   1.110       .  S
C4902      H4906   1.106       .  S
C4902      H4907   1.110       .  S
C4902      H4908   1.111       .  S
C4909      C4910   1.394       .  A
C4909      C4914   1.390       .  A
C4909      H4916   1.085       .  S
C4910      C4911   1.408       .  A
C4911      C4912   1.373       .  A
C4911      C4918   1.508       .  S
C4912      C4913   1.389       .  A
C4912      H4917   1.085       .  S
C4913      C4914   1.408       .  A
C4914      C4915   1.504       .  S
C4915      H4919   1.111       .  S
C4915      H4920   1.110       .  S
C4915      H4921   1.106       .  S
C4918      H4922   1.108       .  S
C4918      H4923   1.108       .  S
C4918      H4924   1.111       .  S
C4925      C4926   1.404       .  A
C4925      C4930   1.408       .  A
C4925      H4932   1.079       .  S
C4926      C4927   1.409       .  A
C4927      C4928   1.397       .  A
C4927      C4934   1.507       .  S
C4928      C4929   1.409       .  A
C4928      H4933   1.081       .  S
C4929      C4930   1.419       .  A
C4930      C4931   1.506       .  S
C4931      H4935   1.111       .  S
C4931      H4936   1.106       .  S
C4931      H4937   1.110       .  S
C4934      H4938   1.107       .  S
C4934      H4939   1.110       .  S
C4934      H4940   1.110       .  S
C4941      C4942   1.414       .  A
C4941      C4946   1.409       .  A
C4941      H4948   1.070       .  S
C4942      C4943   1.436       .  A
C4943      C4944   1.424       .  A
C4943      C4950   1.507       .  S
C4944      C4945   1.406       .  A
C4944      H4949   1.084       .  S
C4945      C4946   1.413       .  A
C4946      C4947   1.507       .  S
C4947      H4951   1.110       .  S
C4947      H4952   1.104       .  S
C4947      H4953   1.111       .  S
C4950      H4954   1.111       .  S
C4950      H4955   1.102       .  S
C4950      H4956   1.109       .  S
C4957      C4958   1.399       .  A
C4957      C4962   1.397       .  A
C4957      H4964   1.084       .  S
C4958      C4959   1.421       .  A
C4959      C4960   1.397       .  A
C4959      C4966   1.510       .  S
C4960      C4961   1.394       .  A
C4960      H4965   1.083       .  S
C4961      C4962   1.409       .  A
C4962      C4963   1.508       .  S
C4963      H4967   1.111       .  S
C4963      H4968   1.105       .  S
C4963      H4969   1.110       .  S
C4966      H4970   1.107       .  S
C4966      H4971   1.111       .  S
C4966      H4972   1.111       .  S
C4973      C4974   1.399       .  A
C4973      C4978   1.376       .  A
C4973      H4980   1.082       .  S
C4974      C4975   1.535       .  A
C4975      C4976   1.491       .  A
C4975      C4982   2.958       .  S
C4976      C4977   1.395       .  A
C4976      H4981   1.084       .  S
C4977      C4978   1.392       .  A
C4978      C4979   1.510       .  S
C4979      H4983   1.111       .  S
C4979      H4984   1.110       .  S
C4979      H4985   1.110       .  S
C4982      H4986   1.131       .  S
C4982      H4987   1.129       .  S
C4982      H4988   1.129       .  S
C4989      C4990   1.792       .  A
C4989      C4994   1.768       .  A
C4989      H4996   1.082       .  S
C4990      C4991   1.796       .  A
C4991      C4992   1.765       .  A
C4991      C4998   1.483       .  S
C4992      C4993   1.779       .  A
C4992      H4997   1.082       .  S
C4993      C4994   1.784       .  A
C4994      C4995   1.493       .  S
C4995      H4999   1.109       .  S
C4995      H5000   1.110       .  S
C4995      H5001   1.108       .  S
C4998      H5002   1.109       .  S
C4998      H5003   1.108       .  S
C4998      H5004   1.104       .  S
C5005      C5006   1.405       .  A
C5005      C5010   1.406       .  A
C5005      H5012   1.085       .  S
C5006      C5007   1.413       .  A
C5007      C5008   1.401       .  A
C5007      C5014   1.500       .  S
C5008      C5009   1.405       .  A
C5008      H5013   1.082       .  S
C5009      C5010   1.419       .  A
C5010      C5011   1.505       .  S
C5011      H5015   1.111       .  S
C5011      H5016   1.107       .  S
C5011      H5017   1.110       .  S
C5014      H5018   1.111       .  S
C5014      H5019   1.101       .  S
C5014      H5020   1.102       .  S
C5021      C5022   1.399       .  A
C5021      C5026   1.408       .  A
C5021      H5028   1.085       .  S
C5022      C5023   1.406       .  A
C5023      C5024   1.404       .  A
C5023      C5030   1.506       .  S
C5024      C5025   1.414       .  A
C5024      H5029   1.083   1_545  S
C5025      C5026   1.428       .  A
C5026      C5027   1.509       .  S
C5027      H5031   1.110       .  S
C5027      H5032   1.109       .  S
C5027      H5033   1.105       .  S
C5030      H5034   1.109       .  S
C5030      H5035   1.109       .  S
C5030      H5036   1.111       .  S
C5037      C5038   1.398       .  A
C5037      C5042   1.397       .  A
C5037      H5044   1.075       .  S
C5038      C5039   1.406       .  A
C5039      C5040   1.399       .  A
C5039      C5046   1.507       .  S
C5040      C5041   1.407       .  A
C5040      H5045   1.083   1_545  S
C5041      C5042   1.421       .  A
C5042      C5043   1.510       .  S
C5043      H5047   1.110       .  S
C5043      H5048   1.110       .  S
C5043      H5049   1.110       .  S
C5046      H5050   1.110       .  S
C5046      H5051   1.107       .  S
C5046      H5052   1.111       .  S
C5053      C5054   1.402       .  A
C5053      C5058   1.403       .  A
C5053      H5060   1.082       .  S
C5054      C5055   1.416       .  A
C5055      C5056   1.406       .  A
C5055      C5062   1.507       .  S
C5056      C5057   1.403       .  A
C5056      H5061   1.085       .  S
C5057      C5058   1.411       .  A
C5058      C5059   1.507       .  S
C5059      H5063   1.111       .  S
C5059      H5064   1.110       .  S
C5059      H5065   1.110       .  S
C5062      H5066   1.107       .  S
C5062      H5067   1.111       .  S
C5062      H5068   1.110       .  S
C5069      C5070   1.400       .  A
C5069      C5074   1.387       .  A
C5069      H5076   1.085       .  S
C5070      C5071   1.400       .  A
C5071      C5072   1.391       .  A
C5071      C5078   1.505       .  S
C5072      C5073   1.402       .  A
C5072      H5077   1.084       .  S
C5073      C5074   1.402       .  A
C5074      C5075   1.503       .  S
C5075      H5079   1.110       .  S
C5075      H5080   1.110       .  S
C5075      H5081   1.105       .  S
C5078      H5082   1.110       .  S
C5078      H5083   1.111       .  S
C5078      H5084   1.111       .  S
C5085      C5086   1.404       .  A
C5085      C5090   1.400       .  A
C5085      H5092   1.084       .  S
C5086      C5087   1.419       .  A
C5087      C5088   1.408       .  A
C5087      C5094   1.506       .  S
C5088      C5089   1.401       .  A
C5088      H5093   1.084       .  S
C5089      C5090   1.412       .  A
C5090      C5091   1.505       .  S
C5091      H5095   1.111       .  S
C5091      H5096   1.107       .  S
C5091      H5097   1.110       .  S
C5094      H5098   1.106       .  S
C5094      H5099   1.110       .  S
C5094      H5100   1.111       .  S
C5101      C5102   1.412       .  A
C5101      C5106   1.417       .  A
C5101      H5108   1.081       .  S
C5102      C5103   1.435       .  A
C5103      C5104   1.413       .  A
C5103      C5110   1.511       .  S
C5104      C5105   1.399       .  A
C5104      H5109   1.085       .  S
C5105      C5106   1.418       .  A
C5106      C5107   1.505       .  S
C5107      H5111   1.110       .  S
C5107      H5112   1.106       .  S
C5107      H5113   1.110       .  S
C5110      H5114   1.110       .  S
C5110      H5115   1.102       .  S
C5110      H5116   1.111       .  S
C5117      C5118   1.397       .  A
C5117      C5122   1.377       .  A
C5117      H5124   1.087       .  S
C5118      C5119   1.404       .  A
C5119      C5120   1.393       .  A
C5119      C5126   1.506       .  S
C5120      C5121   1.401       .  A
C5120      H5125   1.084       .  S
C5121      C5122   1.406       .  A
C5122      C5123   1.511       .  S
C5123      H5127   1.110       .  S
C5123      H5128   1.106       .  S
C5123      H5129   1.111       .  S
C5126      H5130   1.111       .  S
C5126      H5131   1.109       .  S
C5126      H5132   1.110       .  S
