geometry optimzed in LAMMPS
_audit_creation_date              2020-11-30 
_audit_creation_method            'lammps2cif' 
_symmetry_space_group_name_H-M    'P1' 
_symmetry_Int_Tables_number       1 
_symmetry_cell_setting            triclinic 
loop_ 
_symmetry_equiv_pos_as_xyz 
  x,y,z 
_cell_length_a                    28.54572365 
_cell_length_b                    28.75646410331112 
_cell_length_c                    28.978586329028243 
_cell_angle_alpha                 89.62856109099658 
_cell_angle_beta                  89.89630310658343 
_cell_angle_gamma                 90.07504048113739 
loop_ 
_atom_site_label 
_atom_site_type_symbol 
_atom_site_fract_x 
_atom_site_fract_y 
_atom_site_fract_z 
_atom_site_charge 
C1          C  0.40590429  0.39769368  0.10005498     0.44100
N2          N  0.42319476  0.44194546  0.04309957     0.02900
C3          C  0.62720172  0.45168056  0.41862204    -0.04900
H4          H  0.64898165  0.47476205  0.09532798     0.08400
C5          C  0.55206771  0.62288993  0.07594956    -0.05300
Co6        Co  0.51266479  0.41532086  0.99856199     0.74200
N7          N  0.59013452  0.45828230  0.05193714    -0.24500
Co8        Co  0.58953800  0.50778272  0.50012744     0.74100
C9          C  0.59492212  0.60928132  0.10009221     0.44200
N10         N  0.44366845  0.57908487  0.03858939     0.02600
N11         N  0.58096775  0.56006470  0.04723406     0.02700
N12         N  0.57567820  0.39167533  0.41736625    -0.45300
H13         H  0.47316332  0.35422066  0.09024752     0.08400
N14         N  0.56049404  0.42317383  0.05121304     0.02900
N15         N  0.58656639  0.55619997  0.44760403     0.02700
C16         C  0.60167387  0.59534782  0.38670331     0.44300
N17         N  0.41426658  0.54371835  0.03836535    -0.23900
C18         C  0.46128234  0.37936737  0.41144945    -0.04800
N19         N  0.39069123  0.43399292  0.07459372    -0.45000
N20         N  0.61771641  0.56124567  0.41435978    -0.45200
C21         C  0.41922203  0.39323044  0.38639056     0.44100
N22         N  0.56639412  0.42080504  0.45114346     0.02900
N23         N  0.42017312  0.53979347  0.43865169    -0.23900
N24         N  0.45846482  0.41261736  0.04583513    -0.24400
N25         N  0.44969911  0.57492525  0.43860803     0.02600
H26         H  0.36624055  0.51785576  0.39220288     0.08500
H27         H  0.53492606  0.63977589  0.39518761     0.08500
N28         N  0.59591599  0.45595692  0.45247379    -0.24500
N29         N  0.54639952  0.59015843  0.04373862    -0.24100
N30         N  0.42900316  0.43904453  0.44310705     0.02900
C31         C  0.60432710  0.40917389  0.10918725     0.44300
C32         C  0.38252284  0.54953184  0.07165175    -0.05300
N33         N  0.55132252  0.58537555  0.44387518    -0.24100
H34         H  0.52980490  0.65292582  0.08066448     0.08500
N35         N  0.56799134  0.39283547  0.08459737    -0.45300
H36         H  0.35393971  0.52599155  0.07944298     0.08500
C37         C  0.41091931  0.58312652  0.37597912     0.44200
C38         C  0.45084418  0.38315416  0.08092087    -0.04800
Co39       Co  0.42029220  0.49105521  0.99089818     0.73800
N40         N  0.43363742  0.60988198  0.07058991    -0.45000
C41         C  0.61329522  0.40944299  0.39536167     0.44400
N42         N  0.40085604  0.43011633  0.40822803    -0.45000
Co43       Co  0.49745723  0.58386730  0.49125304     0.73900
C44         C  0.55781260  0.61206924  0.40645384    -0.05400
C45         C  0.61934596  0.45269440  0.08758588    -0.04900
N46         N  0.46439813  0.40991783  0.44589290    -0.24400
N47         N  0.61089041  0.57034415  0.08014130    -0.45200
H48         H  0.65567229  0.47544798  0.41117086     0.08400
C49         C  0.39381293  0.54206699  0.40067521    -0.05300
Cl50       Cl  0.50492894  0.49954352  0.99554837    -0.48300
C51         C  0.39562351  0.59339827  0.09286536     0.44200
H52         H  0.48518212  0.35091910  0.40524847     0.08400
N53         N  0.44506206  0.60190753  0.40199993    -0.45000
C54         C  0.60078072  0.90380881  0.11879420     0.44100
N55         N  0.57795568  0.94889597  0.06315955     0.02900
C56         C  0.37170607  0.07936001  0.05444846    -0.04900
H57         H  0.33940876  0.91557747  0.04001106     0.08400
C58         C  0.43652595  0.91854646  0.38039585    -0.05300
Co59       Co  0.48931763  0.99988087  0.08741794     0.74200
N60         N  0.40577760  0.94982528  0.04974804    -0.24500
Co61       Co  0.41022646  0.99890718  0.99572207     0.74100
C62         C  0.38947679  0.90240523  0.39213642     0.44200
N63         N  0.55577055  0.94548249  0.42360851     0.02600
N64         N  0.41354817  0.94780470  0.44527066     0.02700
N65         N  0.42126153  0.07757787  0.11532224    -0.45300
H66         H  0.53376453  0.91994256  0.16057726     0.08400
N67         N  0.43625174  0.94958487  0.08405491     0.02900
N68         N  0.41475976  0.04799097  0.44162022     0.02700
C69         C  0.39321604  0.09300434  0.38523561     0.44300
N70         N  0.58572479  0.94671399  0.45841533    -0.23900
C71         C  0.55290984  0.07942452  0.12464916    -0.04800
N72         N  0.61312508  0.92240106  0.07750400    -0.45000
N73         N  0.38013597  0.07496143  0.42666449    -0.45200
C74         C  0.59999292  0.09735626  0.11432159     0.44100
N75         N  0.43605114  0.05004971  0.08172338     0.02900
N76         N  0.58543313  0.04684920  0.45584729    -0.23900
N77         N  0.54291923  0.94990977  0.09300461    -0.24400
N78         N  0.55573917  0.04581509  0.42085996     0.02600
H79         H  0.65073926  0.08313935  0.46629489     0.08500
H80         H  0.46048541  0.07521649  0.34443987     0.08500
N81         N  0.40697189  0.04979546  0.04623294    -0.24500
N82         N  0.44847305  0.94685523  0.41518438    -0.24100
N83         N  0.57822241  0.04963217  0.06085320     0.02900
C84         C  0.38226937  0.90161652  0.10629575     0.44300
C85         C  0.62112810  0.91727673  0.44950198    -0.05300
N86         N  0.44992382  0.04624269  0.41198995    -0.24100
H87         H  0.45598954  0.91403899  0.34872637     0.08500
N88         N  0.42330397  0.92170958  0.11840974    -0.45300
H89         H  0.65269044  0.91379485  0.46971836     0.08500
C90         C  0.60814643  0.09498005  0.40005657     0.44200
C91         C  0.55382636  0.92221265  0.12903439    -0.04800
Co92       Co  0.58200755  0.99804340  0.00957291     0.73800
N93         N  0.56984450  0.91731400  0.39017407    -0.45000
C94         C  0.38127171  0.09757838  0.10016760     0.44400
N95         N  0.61328877  0.07675596  0.07441328    -0.45000
Co96       Co  0.50272027  0.99591376  0.41776841     0.73900
C97         C  0.43986011  0.07368922  0.37564817    -0.05400
C98         C  0.37066538  0.92036508  0.06043287    -0.04900
N99         N  0.54271912  0.05004781  0.09019920    -0.24400
N100        N  0.37751029  0.92180858  0.43260802    -0.45200
H101        H  0.34059387  0.08318192  0.03357845     0.08400
C102        C  0.61967316  0.07735368  0.44591907    -0.05300
Cl103      Cl  0.49608130  0.99811952  0.00262732    -0.48300
C104        C  0.61037643  0.89764442  0.40440364     0.44200
H105        H  0.53229122  0.08304584  0.15571010     0.08400
N106        N  0.56857825  0.07353771  0.38636944    -0.45000
C107        C  0.89312955  0.39032856  0.10721980     0.44100
N108        N  0.94482576  0.41322164  0.05782368     0.02900
C109        C  0.07334394  0.61924902  0.06304851    -0.04900
H110        H  0.91065392  0.64951937  0.03495974     0.08400
C111        C  0.92209394  0.55917033  0.37692810    -0.05300
Co112      Co  0.99247284  0.50119926  0.08786746     0.74200
N113        N  0.94318108  0.58361520  0.04801293    -0.24500
Co114      Co  0.99546027  0.58088681  0.99803898     0.74100
C115        C  0.90369532  0.60508058  0.38998270     0.44200
N116        N  0.94897030  0.43664793  0.41953921     0.02600
N117        N  0.94670032  0.57782529  0.44481315     0.02700
N118        N  0.06978274  0.56731561  0.12167003    -0.45300
H119        H  0.90528507  0.45609969  0.15130157     0.08400
N120        N  0.94123043  0.55363507  0.08261167     0.02900
N121        N  0.04748905  0.57832954  0.44759855     0.02700
C122        C  0.09568285  0.60196260  0.39599041     0.44300
N123        N  0.94937806  0.40687234  0.45452296    -0.23900
C124        C  0.07197540  0.43972613  0.12845420    -0.04800
N125        N  0.91631028  0.37833624  0.06841664    -0.45000
N126        N  0.07505393  0.61364973  0.43608652    -0.45200
C127        C  0.09248725  0.39432874  0.11806193     0.44100
N128        N  0.04286282  0.55439377  0.08670690     0.02900
N129        N  0.05001212  0.40931019  0.45775467    -0.23900
N130        N  0.94279413  0.44745837  0.08791923    -0.24400
N131        N  0.05021873  0.43916190  0.42281313     0.02600
H132        H  0.08585659  0.34425895  0.46952608     0.08500
H133        H  0.08320470  0.53759772  0.35101451     0.08500
N134        N  0.04395597  0.58449336  0.05214561    -0.24500
N135        N  0.94823265  0.54491596  0.41311125    -0.24100
N136        N  0.04620523  0.41509085  0.06273260     0.02900
C137        C  0.89310186  0.60850585  0.10154699     0.44300
C138        C  0.92213698  0.37042190  0.44426048    -0.05300
N139        N  0.04817826  0.54462471  0.41671287    -0.24100
H140        H  0.92032599  0.54201583  0.34385818     0.08500
N141        N  0.91222133  0.56758315  0.11564975    -0.45300
H142        H  0.91978933  0.33881346  0.46456235     0.08500
C143        C  0.10113437  0.38743394  0.40421077     0.44200
C144        C  0.91098314  0.43638629  0.12023837    -0.04800
Co145      Co  0.99776654  0.41097477  0.00833766     0.73800
N146        N  0.92380520  0.42092340  0.38429379    -0.45000
C147        C  0.09053810  0.60804959  0.10958002     0.44400
N148        N  0.07437613  0.38119930  0.07695116    -0.45000
Co149      Co  0.99863550  0.49116245  0.41760743     0.73900
C150        C  0.07811401  0.55638652  0.38287865    -0.05400
C151        C  0.91359855  0.61871857  0.05627985    -0.04900
N152        N  0.04362496  0.44937281  0.09276803    -0.24400
N153        N  0.92086036  0.61391420  0.43226655    -0.45200
H154        H  0.07851127  0.65017322  0.04231857     0.08400
C155        C  0.08122530  0.37555847  0.44914197    -0.05300
Cl156      Cl  0.99604730  0.49603711  0.00290669    -0.48300
C157        C  0.90508344  0.37951144  0.39763855     0.44200
H158        H  0.07369473  0.45962019  0.15988384     0.08400
N159        N  0.07967377  0.42673112  0.38960902    -0.45000
C160        C  0.25049610  0.26104942  0.20644715     0.47100
H161        H  0.24367134  0.26492582  0.16900856    -0.02000
C162        C  0.26253301  0.25379557  0.29460497     0.47100
H163        H  0.26795903  0.25062928  0.33243112    -0.02000
C164        C  0.28966555  0.29247579  0.22479850    -0.15700
C165        C  0.20706970  0.27517992  0.23458861    -0.15400
C166        C  0.26680172  0.21180855  0.22096879    -0.15800
C167        C  0.29606259  0.28846877  0.27144963    -0.15800
C168        C  0.21340536  0.27228603  0.28172556    -0.15300
C169        C  0.27237274  0.20795325  0.26859428    -0.15700
C170        C  0.74408124  0.25064911  0.20857415     0.47100
H171        H  0.74353067  0.24814004  0.17031652    -0.02000
C172        C  0.74564715  0.25601326  0.29731859     0.47100
H173        H  0.74350757  0.25962845  0.33499084    -0.02000
C174        C  0.71462504  0.29091247  0.22702419    -0.15700
C175        C  0.72354297  0.20708187  0.23278028    -0.15400
C176        C  0.79335184  0.26164939  0.22801261    -0.15800
C177        C  0.71596895  0.29371255  0.27395348    -0.15800
C178        C  0.72403056  0.21015058  0.28026050    -0.15300
C179        C  0.79543234  0.26218993  0.27624495    -0.15700
C180        C  0.25344363  0.73969514  0.20653336     0.47100
H181        H  0.24954374  0.74356010  0.16857721    -0.02000
C182        C  0.26422033  0.72978435  0.29449311     0.47100
H183        H  0.26679493  0.72541386  0.33192977    -0.02000
C184        C  0.29123850  0.70459891  0.21920106    -0.15700
C185        C  0.27075177  0.78468758  0.23084167    -0.15400
C186        C  0.20913811  0.72009432  0.23122851    -0.15800
C187        C  0.29721681  0.69939059  0.26550964    -0.15800
C188        C  0.27558432  0.77959830  0.27846096    -0.15300
C189        C  0.21489041  0.71595061  0.27852275    -0.15700
C190        C  0.74754788  0.75201511  0.20662813     0.47100
H191        H  0.74814753  0.75774684  0.16867098    -0.02000
C192        C  0.74656663  0.73882578  0.29467449     0.47100
H193        H  0.74362378  0.73154506  0.33175604    -0.02000
C194        C  0.71462960  0.71285509  0.22114928    -0.15700
C195        C  0.79547411  0.73529503  0.22617142    -0.15400
C196        C  0.72874127  0.79454949  0.23393146    -0.15800
C197        C  0.71471433  0.70555559  0.26773081    -0.15800
C198        C  0.79637578  0.73149706  0.27424032    -0.15300
C199        C  0.72839723  0.78750141  0.28127680    -0.15700
C200        C  0.12771562  0.68521484  0.13259589     0.25200
C201        C  0.11859067  0.63774591  0.14187077    -0.22900
C202        C  0.13691575  0.61846014  0.18280253     0.20100
C203        C  0.16516772  0.64490726  0.21228790     0.25100
C204        C  0.17409006  0.69259034  0.20331512    -0.22900
C205        C  0.15468114  0.71215515  0.16302921     0.20000
F206        F  0.16268871  0.75751641  0.15240781    -0.12800
F207        F  0.11070252  0.70613822  0.09410253    -0.15200
F208        F  0.18745048  0.62204506  0.24685453    -0.15200
F209        F  0.12961401  0.57295878  0.19343233    -0.12800
C210        C  0.13378953  0.69293708  0.30817162     0.25200
C211        C  0.18302923  0.68949202  0.31114189    -0.22900
C212        C  0.20197299  0.65826508  0.34447460     0.20100
C213        C  0.17308531  0.63131729  0.37263136     0.25100
C214        C  0.12469768  0.63343138  0.36793271    -0.22900
C215        C  0.10488927  0.66452594  0.33586980     0.20000
F216        F  0.05765855  0.66690729  0.33103936    -0.12800
F217        F  0.11363330  0.72325320  0.27814044    -0.15200
F218        F  0.19266815  0.60188207  0.40396621    -0.15200
F219        F  0.24852211  0.65113112  0.34908994    -0.12800
C220        C  0.17784582  0.35679247  0.37742854     0.25200
C221        C  0.12904287  0.35644055  0.37433579    -0.22900
C222        C  0.10736218  0.32584088  0.34329939     0.20100
C223        C  0.13444018  0.29711071  0.31453551     0.25100
C224        C  0.18383551  0.29862777  0.31609875    -0.22900
C225        C  0.20492655  0.32821462  0.34905977     0.20000
F226        F  0.25193584  0.33125967  0.35341030    -0.12800
F227        F  0.19954594  0.38563018  0.40758408    -0.15200
F228        F  0.11233176  0.26764756  0.28534030    -0.15200
F229        F  0.05991975  0.32376891  0.34093087    -0.12800
C230        C  0.14548165  0.38228346  0.18682410     0.25200
C231        C  0.11914438  0.36339968  0.15031012    -0.22900
C232        C  0.11843113  0.31464156  0.14520189     0.20100
C233        C  0.14436604  0.28582250  0.17496427     0.25100
C234        C  0.17141313  0.30482473  0.21066071    -0.22900
C235        C  0.17126833  0.35339292  0.21656696     0.20000
F236        F  0.19949413  0.37338631  0.24844747    -0.12800
F237        F  0.14887545  0.42900919  0.19216233    -0.15200
F238        F  0.14424561  0.23916721  0.16807163    -0.15200
F239        F  0.09292642  0.29465463  0.11115941    -0.12800
C240        C  0.86458932  0.30905851  0.12691860     0.25200
C241        C  0.86561477  0.35725286  0.13646994    -0.22900
C242        C  0.84153837  0.37327597  0.17564150     0.20100
C243        C  0.81944543  0.34212562  0.20565378     0.25100
C244        C  0.82064549  0.29389694  0.19767505    -0.22900
C245        C  0.84193274  0.27782643  0.15710434     0.20000
F246        F  0.84084766  0.23183298  0.14682914    -0.12800
F247        F  0.88570337  0.29189674  0.08863756    -0.15200
F248        F  0.79836139  0.35920063  0.24383357    -0.15200
F249        F  0.83868780  0.41928221  0.18514826    -0.12800
C250        C  0.89473161  0.34153783  0.31977389     0.25200
C251        C  0.88251174  0.34470255  0.36666853    -0.22900
C252        C  0.85239452  0.31046893  0.38487064     0.20100
C253        C  0.83039837  0.27827742  0.35585735     0.25100
C254        C  0.83473702  0.28151228  0.30719265    -0.22900
C255        C  0.87339284  0.30824012  0.29117462     0.20000
F256        F  0.89410712  0.29961969  0.25008072    -0.12800
F257        F  0.92910725  0.36901437  0.30201121    -0.15200
F258        F  0.80673335  0.24257048  0.37604928    -0.15200
F259        F  0.84329224  0.30842703  0.43082657    -0.12800
C260        C  0.89491642  0.64891232  0.31445586     0.25200
C261        C  0.88165062  0.64181185  0.36068908    -0.22900
C262        C  0.85161136  0.67464147  0.38073249     0.20100
C263        C  0.82946454  0.70857219  0.35349753     0.25100
C264        C  0.83454330  0.70911587  0.30477360    -0.22900
C265        C  0.87385187  0.68427629  0.28777988     0.20000
F266        F  0.89517445  0.69649684  0.24773575    -0.12800
F267        F  0.93033324  0.62370745  0.29586812    -0.15200
F268        F  0.80572271  0.74265086  0.37568382    -0.15200
F269        F  0.84345784  0.67396239  0.42691977    -0.12800
C270        C  0.84489907  0.72022817  0.15556743     0.25200
C271        C  0.82175296  0.70296042  0.19485672    -0.22900
C272        C  0.82024641  0.65427345  0.20169505     0.20100
C273        C  0.84309814  0.62400841  0.17135140     0.25100
C274        C  0.86720306  0.64123674  0.13247076    -0.22900
C275        C  0.86754682  0.68994414  0.12485590     0.20000
F276        F  0.89085985  0.70892759  0.08854899    -0.12800
F277        F  0.84632963  0.76673835  0.14734353    -0.15200
F278        F  0.84146194  0.57759443  0.18013494    -0.15200
F279        F  0.79836645  0.63587227  0.23910057    -0.12800
C280        C  0.63909188  0.17153073  0.37541599     0.25200
C281        C  0.63827926  0.12343062  0.36983359    -0.22900
C282        C  0.66647951  0.10303453  0.33574754     0.20100
C283        C  0.69542965  0.13079423  0.30754824     0.25100
C284        C  0.69571238  0.17959179  0.31223925    -0.22900
C285        C  0.66707824  0.19937606  0.34696997     0.20000
F286        F  0.66424846  0.24586773  0.35296563    -0.12800
F287        F  0.61168287  0.19181612  0.40792750    -0.15200
F288        F  0.72351786  0.10989225  0.27607925    -0.15200
F289        F  0.66631120  0.05620376  0.33013950    -0.12800
C290        C  0.61357131  0.15029690  0.18275180     0.25200
C291        C  0.63185568  0.12409478  0.14585494    -0.22900
C292        C  0.68099604  0.12349689  0.13981979     0.20100
C293        C  0.71063655  0.14894031  0.16918093     0.25100
C294        C  0.69226019  0.17508966  0.20577859    -0.22900
C295        C  0.64327554  0.17526783  0.21228432     0.20000
F296        F  0.62364824  0.20251338  0.24511084    -0.12800
F297        F  0.56663395  0.15378676  0.18923070    -0.15200
F298        F  0.75758673  0.14826302  0.16169830    -0.15200
F299        F  0.70066233  0.09814950  0.10554046    -0.12800
C300        C  0.32355548  0.10454028  0.16551804     0.25200
C301        C  0.34867262  0.12481266  0.12879709    -0.22900
C302        C  0.34153056  0.17153819  0.11823262     0.20100
C303        C  0.31356243  0.19915836  0.14644178     0.25100
C304        C  0.29023008  0.18030171  0.18586339    -0.22900
C305        C  0.29341062  0.13168132  0.19286449     0.20000
F306        F  0.26799281  0.11042775  0.22654206    -0.12800
F307        F  0.32796636  0.05839862  0.17463478    -0.15200
F308        F  0.31185757  0.24472960  0.13502841    -0.15200
F309        F  0.36343959  0.19121341  0.08128013    -0.12800
C310        C  0.31396146  0.12721164  0.36469763     0.25200
C311        C  0.36140064  0.11945637  0.35309078    -0.22900
C312        C  0.37787407  0.13780501  0.31071046     0.20100
C313        C  0.34850835  0.16417815  0.28186634     0.25100
C314        C  0.30128031  0.17218052  0.29373883    -0.22900
C315        C  0.28445541  0.15305653  0.33540702     0.20000
F316        F  0.23957454  0.16108600  0.34875931    -0.12800
F317        F  0.29605583  0.11077732  0.40505460    -0.15200
F318        F  0.36788669  0.18569482  0.24464773    -0.15200
F319        F  0.42325522  0.13283113  0.29787583    -0.12800
C320        C  0.71328380  0.85199847  0.16960414     0.25200
C321        C  0.69687001  0.82806505  0.20891272    -0.22900
C322        C  0.64834031  0.82998276  0.21872446     0.20100
C323        C  0.61755377  0.85534789  0.19041269     0.25100
C324        C  0.63384446  0.87847357  0.15045685    -0.22900
C325        C  0.68234562  0.87663756  0.14070411     0.20000
F326        F  0.70011716  0.89821703  0.10272297    -0.12800
F327        F  0.75941037  0.85027180  0.15824634    -0.15200
F328        F  0.57123368  0.85460519  0.20091151    -0.15200
F329        F  0.62951387  0.80353238  0.25294488    -0.12800
C330        C  0.70124062  0.86582305  0.31309139     0.25200
C331        C  0.70114460  0.81672733  0.31559323    -0.22900
C332        C  0.67205698  0.79551527  0.34958945     0.20100
C333        C  0.64389661  0.82213712  0.37887860     0.25100
C334        C  0.64243922  0.87049955  0.37453367    -0.22900
C335        C  0.67158989  0.89230773  0.34167839     0.20000
F336        F  0.67131661  0.93932496  0.33726844    -0.12800
F337        F  0.72980308  0.88825705  0.28276514    -0.15200
F338        F  0.61669420  0.80028350  0.41084781    -0.15200
F339        F  0.66811548  0.74877924  0.35351036    -0.12800
C340        C  0.30084179  0.86138266  0.30324907     0.25200
C341        C  0.30153841  0.81266070  0.31052553    -0.22900
C342        C  0.32886069  0.79590682  0.34843270     0.20100
C343        C  0.35618617  0.82571615  0.37479067     0.25100
C344        C  0.35821945  0.87287277  0.36458711    -0.22900
C345        C  0.32967233  0.89101693  0.32939596     0.20000
F346        F  0.32941716  0.93744069  0.32063557    -0.12800
F347        F  0.27189000  0.88059314  0.27134133    -0.15200
F348        F  0.38176212  0.80800929  0.41029485    -0.15200
F349        F  0.33159714  0.75060083  0.36070793    -0.12800
C350        C  0.37394136  0.85028806  0.17637117     0.25200
C351        C  0.35283935  0.87293484  0.13855734    -0.22900
C352        C  0.30386943  0.86846736  0.13312529     0.20100
C353        C  0.27717374  0.84151139  0.16428566     0.25100
C354        C  0.29844152  0.81862798  0.20182725    -0.22900
C355        C  0.34732013  0.82335937  0.20722775     0.20000
F356        F  0.37010493  0.80059490  0.24147040    -0.12800
F357        F  0.42097142  0.85288635  0.18287377    -0.15200
F358        F  0.23027319  0.83762999  0.15768460    -0.15200
F359        F  0.28137569  0.89056237  0.09814439    -0.12800
C360        C  0.37394240  0.68318524  0.30212452     0.25200
C361        C  0.33094937  0.66690684  0.28578387    -0.22900
C362        C  0.31988948  0.61961996  0.28949290     0.20100
C363        C  0.34799871  0.59038484  0.31605661     0.25100
C364        C  0.38796119  0.60842774  0.33813803    -0.22900
C365        C  0.40265158  0.65403267  0.32770185     0.20000
F366        F  0.44339821  0.67155946  0.34440285    -0.12800
F367        F  0.38761901  0.72775329  0.29477335    -0.15200
F368        F  0.33486427  0.54534319  0.32137285    -0.15200
F369        F  0.28026073  0.60256578  0.27005484    -0.12800
C370        C  0.29470161  0.64458521  0.15823741     0.25200
C371        C  0.31767274  0.67794915  0.18491718    -0.22900
C372        C  0.36634697  0.68328063  0.18119114     0.20100
C373        C  0.39191504  0.65446871  0.15230280     0.25100
C374        C  0.36889955  0.62066733  0.12595726    -0.22900
C375        C  0.32004387  0.61592662  0.12906317     0.20000
F376        F  0.29635510  0.58475310  0.10298160    -0.12800
F377        F  0.24775818  0.63919411  0.16055021    -0.15200
F378        F  0.43921236  0.65943085  0.15035108    -0.15200
F379        F  0.38916189  0.71672141  0.20494859    -0.12800
C380        C  0.60854449  0.64636597  0.31729372     0.25200
C381        C  0.62968595  0.61726828  0.35031761    -0.22900
C382        C  0.67871852  0.61243309  0.35092365     0.20100
C383        C  0.70624999  0.63973645  0.32206871     0.25100
C384        C  0.68523360  0.67150572  0.29182566    -0.22900
C385        C  0.63626239  0.67371722  0.28838653     0.20000
F386        F  0.61529834  0.70465799  0.25955029    -0.12800
F387        F  0.56124195  0.64936296  0.31374094    -0.15200
F388        F  0.75356162  0.63636118  0.32491405    -0.15200
F389        F  0.70039964  0.58355060  0.38135425    -0.12800
C390        C  0.65532522  0.61267762  0.16089770     0.25200
C391        C  0.62361938  0.63619931  0.13209212    -0.22900
C392        C  0.62351762  0.68495640  0.13097634     0.20100
C393        C  0.65499278  0.70972001  0.15808374     0.25100
C394        C  0.68554782  0.68631249  0.18824827    -0.22900
C395        C  0.68575248  0.63745401  0.18891352     0.20000
F396        F  0.71535792  0.61334786  0.21655012    -0.12800
F397        F  0.65675037  0.56546512  0.16217293    -0.15200
F398        F  0.65487877  0.75659782  0.15498944    -0.15200
F399        F  0.59433058  0.70883852  0.10253651    -0.12800
C400        C  0.61568528  0.35766437  0.32802321     0.25200
C401        C  0.63961270  0.38460280  0.36051412    -0.22900
C402        C  0.68874002  0.38434406  0.36200738     0.20100
C403        C  0.71361960  0.35572391  0.33251247     0.25100
C404        C  0.68968757  0.32744234  0.30120927    -0.22900
C405        C  0.64065870  0.32906275  0.29843896     0.20000
F406        F  0.61695478  0.30092511  0.26916027    -0.12800
F407        F  0.56816832  0.35830136  0.32572435    -0.15200
F408        F  0.76104243  0.35518702  0.33498114    -0.15200
F409        F  0.71264508  0.40933682  0.39386419    -0.12800
C410        C  0.66144882  0.39976237  0.17345420     0.25200
C411        C  0.63179506  0.37992456  0.14048533    -0.22900
C412        C  0.62997871  0.33136533  0.13596797     0.20100
C413        C  0.65793180  0.30313943  0.16331693     0.25100
C414        C  0.68739963  0.32248395  0.19669704    -0.22900
C415        C  0.68895080  0.37130850  0.20153764     0.20000
F416        F  0.71691382  0.39192873  0.23309423    -0.12800
F417        F  0.66322309  0.44657388  0.17915649    -0.15200
F418        F  0.65521305  0.25661449  0.15741191    -0.15200
F419        F  0.60197235  0.31081156  0.10420889    -0.12800
C420        C  0.39291459  0.31765180  0.35466618     0.25200
C421        C  0.39280915  0.36638181  0.35261897    -0.22900
C422        C  0.36241928  0.38946414  0.32208612     0.20100
C423        C  0.33154677  0.36410479  0.29488278     0.25100
C424        C  0.33078178  0.31533914  0.29789155    -0.22900
C425        C  0.36169644  0.29244039  0.32793784     0.20000
F426        F  0.36116520  0.24565046  0.33247388    -0.12800
F427        F  0.42078259  0.29427538  0.38477353    -0.15200
F428        F  0.30038131  0.38725662  0.26790813    -0.15200
F429        F  0.36166366  0.43663943  0.31963368    -0.12800
C430        C  0.29959364  0.35102837  0.16181824     0.25200
C431        C  0.31983058  0.32068492  0.19407538    -0.22900
C432        C  0.36884207  0.31588939  0.19553338     0.20100
C433        C  0.39713727  0.34226837  0.16616865     0.25100
C434        C  0.37676003  0.37254441  0.13371683    -0.22900
C435        C  0.32772517  0.37691296  0.13203044     0.20000
F436        F  0.30665539  0.40505237  0.10051944    -0.12600
F437        F  0.25249940  0.35540596  0.15861043    -0.15200
F438        F  0.44435485  0.33818208  0.16975033    -0.15200
F439        F  0.38934080  0.28436743  0.22409076    -0.12800
C440        C  0.40590262  0.39769435  0.60005264     0.44100
N441        N  0.42319381  0.44194592  0.54309716     0.02900
C442        C  0.62719940  0.45167975  0.91861954    -0.04900
H443        H  0.64897988  0.47476387  0.59533054     0.08400
C444        C  0.55206411  0.62289039  0.57594998    -0.05300
Co445      Co  0.51266531  0.41532166  0.49856208     0.74200
N446        N  0.59013347  0.45828383  0.55193886    -0.24500
Co447      Co  0.58953790  0.50778156  0.00012607     0.74100
C448        C  0.59491771  0.60928190  0.60009407     0.44200
N449        N  0.44366692  0.57908555  0.53858629     0.02600
N450        N  0.58096585  0.56006580  0.54723487     0.02700
N451        N  0.57567581  0.39167458  0.91736446    -0.45300
H452        H  0.47316248  0.35422192  0.59024683     0.08400
N453        N  0.56049309  0.42317530  0.55121440     0.02900
N454        N  0.58656472  0.55619877  0.94760283     0.02700
C455        C  0.60166975  0.59534520  0.88670063     0.44300
N456        N  0.41426514  0.54371891  0.53836189    -0.23900
C457        C  0.46128003  0.37936789  0.91145023    -0.04800
N458        N  0.39068966  0.43399325  0.57459073    -0.45000
N459        N  0.61771313  0.56124342  0.91435705    -0.45200
C460        C  0.41921917  0.39323099  0.88639237     0.44100
N461        N  0.56639233  0.42080427  0.95114191     0.02900
N462        N  0.42017157  0.53979351  0.93865513    -0.23900
N463        N  0.45846411  0.41261816  0.54583375    -0.24400
N464        N  0.44969760  0.57492526  0.93861111     0.02600
H465        H  0.36623826  0.51785584  0.89220708     0.08500
H466        H  0.53492270  0.63977425  0.89518691     0.08500
N467        N  0.59591430  0.45595603  0.95247188    -0.24500
N468        N  0.54639750  0.59015927  0.54373846    -0.24100
N469        N  0.42900119  0.43904440  0.94310932     0.02900
C470        C  0.60432528  0.40917568  0.60918944     0.44300
C471        C  0.38252098  0.54953245  0.57164781    -0.05300
N472        N  0.55132101  0.58537468  0.94387504    -0.24100
H473        H  0.52980060  0.65292595  0.58066450     0.08500
N474        N  0.56798995  0.39283710  0.58459899    -0.45300
H475        H  0.35393748  0.52599174  0.57943900     0.08500
C476        C  0.41091686  0.58312666  0.87598290     0.44200
C477        C  0.45084301  0.38315520  0.58091949    -0.04800
Co478      Co  0.42029248  0.49105549  0.49089525     0.73800
N479        N  0.43363553  0.60988249  0.57058683    -0.45000
C480        C  0.61329248  0.40944227  0.89535926     0.44400
N481        N  0.40085339  0.43011654  0.90823069    -0.45000
Co482      Co  0.49745739  0.58386674  0.99125468     0.73900
C483        C  0.55780970  0.61206754  0.90645292    -0.05400
C484        C  0.61934428  0.45269618  0.58758814    -0.04900
N485        N  0.46439629  0.40991775  0.94589406    -0.24400
N486        N  0.61088710  0.57034513  0.58014330    -0.45200
H487        H  0.65566999  0.47544690  0.91116815     0.08400
C488        C  0.39381070  0.54206718  0.90067915    -0.05300
Cl489      Cl  0.50492913  0.49954421  0.49554749    -0.48300
C490        C  0.39562137  0.59339868  0.59286179     0.44200
H491        H  0.48518015  0.35091998  0.90524827     0.08400
N492        N  0.44506002  0.60190759  0.90200316    -0.45000
C493        C  0.60077924  0.90380634  0.61879213     0.44100
N494        N  0.57795494  0.94889345  0.56315720     0.02900
C495        C  0.37170735  0.07936053  0.55444741    -0.04900
H496        H  0.33940882  0.91557632  0.54000986     0.08400
C497        C  0.43652612  0.91854682  0.88039727    -0.05300
Co498      Co  0.48931786  0.99987962  0.58741615     0.74200
N499        N  0.40577739  0.94982459  0.54974676    -0.24500
Co500      Co  0.41022647  0.99890675  0.49572092     0.74100
C501        C  0.38947672  0.90240593  0.89213737     0.44200
N502        N  0.55577091  0.94548331  0.92361121     0.02600
N503        N  0.41354828  0.94780494  0.94527203     0.02700
N504        N  0.42126337  0.07757805  0.61532071    -0.45300
H505        H  0.53376332  0.91994142  0.66057508     0.08400
N506        N  0.43625166  0.94958410  0.58405346     0.02900
N507        N  0.41475964  0.04799123  0.94162101     0.02700
C508        C  0.39321620  0.09300416  0.88523587     0.44300
N509        N  0.58572549  0.94671585  0.95841773    -0.23900
C510        C  0.55291069  0.07942252  0.62464703    -0.04800
N511        N  0.61312396  0.92239816  0.57750182    -0.45000
N512        N  0.38013588  0.07496152  0.92666482    -0.45200
C513        C  0.59999391  0.09735383  0.61431945     0.44100
N514        N  0.43605202  0.05004917  0.58172202     0.02900
N515        N  0.58543273  0.04685086  0.95584871    -0.23900
N516        N  0.54291856  0.94990789  0.59300230    -0.24400
N517        N  0.55573890  0.04581571  0.92086129     0.02600
H518        H  0.65073900  0.08314120  0.96629523     0.08500
H519        H  0.46048581  0.07521616  0.84444085     0.08500
N520        N  0.40697244  0.04979511  0.54623187    -0.24500
N521        N  0.44847333  0.94685533  0.91518595    -0.24100
N522        N  0.57822320  0.04962967  0.56085132     0.02900
C523        C  0.38226984  0.90161514  0.60629435     0.44300
C524        C  0.62112928  0.91727912  0.94950440    -0.05300
N525        N  0.44992385  0.04624280  0.91199096    -0.24100
H526        H  0.45598989  0.91403946  0.84872758     0.08500
N527        N  0.42330436  0.92170845  0.61840816    -0.45300
H528        H  0.65269183  0.91379799  0.96972053     0.08500
C529        C  0.60814619  0.09497994  0.90005648     0.44200
C530        C  0.55382521  0.92221083  0.62903217    -0.04800
Co531      Co  0.58200753  0.99804117  0.50957088     0.73800
N532        N  0.56984489  0.91731443  0.89017714    -0.45000
C533        C  0.38127389  0.09757939  0.60016621     0.44400
N534        N  0.61328977  0.07675326  0.57441129    -0.45000
Co535      Co  0.50272040  0.99591411  0.91777019     0.73900
C536        C  0.43986039  0.07368906  0.87564887    -0.05400
C537        C  0.37066542  0.92036407  0.56043162    -0.04900
N538        N  0.54271985  0.05004578  0.59019720    -0.24400
N539        N  0.37751025  0.92180915  0.93260907    -0.45200
H540        H  0.34059514  0.08318307  0.53357754     0.08400
C541        C  0.61967275  0.07735511  0.94591964    -0.05300
Cl542      Cl  0.49608131  0.99811845  0.50262560    -0.48300
C543        C  0.61037734  0.89764585  0.90440652     0.44200
H544        H  0.53229198  0.08304412  0.65570779     0.08400
N545        N  0.56857803  0.07353725  0.88636999    -0.45000
C546        C  0.89313133  0.39032762  0.60722097     0.44100
N547        N  0.94482671  0.41322198  0.55782464     0.02900
C548        C  0.07334368  0.61924965  0.56305112    -0.04900
H549        H  0.91065210  0.64951909  0.53496080     0.08400
C550        C  0.92209177  0.55916905  0.87692714    -0.05300
Co551      Co  0.99247256  0.50119986  0.58786926     0.74200
N552        N  0.94318040  0.58361557  0.54801458    -0.24500
Co553      Co  0.99546028  0.58088790  0.49804108     0.74100
C554        C  0.90369335  0.60507928  0.88998189     0.44200
N555        N  0.94896808  0.43664700  0.91953833     0.02600
N556        N  0.94669962  0.57782432  0.94481155     0.02700
N557        N  0.06978211  0.56731608  0.62167249    -0.45300
H558        H  0.90528586  0.45609856  0.65130302     0.08400
N559        N  0.94122962  0.55363532  0.58261323     0.02900
N560        N  0.04748856  0.57832762  0.94759620     0.02700
C561        C  0.09568325  0.60195988  0.89598856     0.44300
N562        N  0.94937603  0.40687147  0.95452211    -0.23900
C563        C  0.07197574  0.43972695  0.62845591    -0.04800
N564        N  0.91631205  0.37833592  0.56841763    -0.45000
N565        N  0.07505434  0.61364719  0.93608458    -0.45200
C566        C  0.09248828  0.39433002  0.61806294     0.44100
N567        N  0.04286210  0.55439462  0.58670932     0.02900
N568        N  0.05001032  0.40930857  0.95775275    -0.23900
N569        N  0.94279451  0.44745852  0.58792037    -0.24400
N570        N  0.05021663  0.43916013  0.92281104     0.02600
H571        H  0.08585530  0.34425753  0.96952435     0.08500
H572        H  0.08320389  0.53759546  0.85101225     0.08500
N573        N  0.04395546  0.58449432  0.55214811    -0.24500
N574        N  0.94823125  0.54491484  0.91310975    -0.24100
N575        N  0.04620600  0.41509227  0.56273402     0.02900
C576        C  0.89309960  0.60850526  0.60154784     0.44300
C577        C  0.92213422  0.37042135  0.94426012    -0.05300
N578        N  0.04817711  0.54462291  0.91671040    -0.24100
H579        H  0.92032293  0.54201420  0.84385717     0.08500
N580        N  0.91221961  0.56758283  0.61565082    -0.45300
H581        H  0.91978636  0.33881311  0.96456203     0.08500
C582        C  0.10113236  0.38743233  0.90420862     0.44200
C583        C  0.91098394  0.43638567  0.62023967    -0.04800
Co584      Co  0.99776787  0.41097592  0.50833897     0.73800
N585        N  0.92380221  0.42092275  0.88429334    -0.45000
C586        C  0.09053770  0.60804995  0.60958256     0.44400
N587        N  0.07437741  0.38120099  0.57695200    -0.45000
Co588      Co  0.99863378  0.49116104  0.91760564     0.73900
C589        C  0.07811326  0.55638429  0.88287631    -0.05400
C590        C  0.91359703  0.61871836  0.55628107    -0.04900
N591        N  0.04362519  0.44937381  0.59276989    -0.24400
N592        N  0.92085934  0.61391313  0.93226534    -0.45200
H593        H  0.07851153  0.65017386  0.54232104     0.08400
C594        C  0.08122360  0.37555698  0.94913998    -0.05300
Cl595      Cl  0.99604795  0.49603819  0.50290842    -0.48300
C596        C  0.90508007  0.37951107  0.89763842     0.44200
H597        H  0.07369490  0.45962074  0.65988599     0.08400
N598        N  0.07967152  0.42672935  0.88960681    -0.45000
C599        C  0.25049672  0.26104941  0.70644629     0.47100
H600        H  0.24367209  0.26492589  0.66900767    -0.02000
C601        C  0.26253361  0.25379523  0.79460411     0.47100
H602        H  0.26795987  0.25062879  0.83243021    -0.02000
C603        C  0.28966549  0.29247640  0.72479781    -0.15700
C604        C  0.20707012  0.27517922  0.73458784    -0.15400
C605        C  0.26680308  0.21180867  0.72096777    -0.15800
C606        C  0.29606260  0.28846909  0.77144887    -0.15800
C607        C  0.21340567  0.27228503  0.78172481    -0.15300
C608        C  0.27237399  0.20795317  0.76859325    -0.15700
C609        C  0.74408103  0.25064893  0.70857268     0.47100
H610        H  0.74353083  0.24814038  0.67031501    -0.02000
C611        C  0.74564610  0.25601193  0.79731720     0.47100
H612        H  0.74350629  0.25962662  0.83498946    -0.02000
C613        C  0.71462512  0.29091249  0.72702304    -0.15700
C614        C  0.72354205  0.20708156  0.73277810    -0.15400
C615        C  0.79335160  0.26164818  0.72801176    -0.15800
C616        C  0.71596849  0.29371181  0.77395239    -0.15800
C617        C  0.72402912  0.21014972  0.78025838    -0.15300
C618        C  0.79543155  0.26218834  0.77624412    -0.15700
C619        C  0.25344439  0.73969426  0.70653400     0.47100
H620        H  0.24954400  0.74355911  0.66857790    -0.02000
C621        C  0.26422186  0.72978369  0.79449368     0.47100
H622        H  0.26679697  0.72541333  0.83193028    -0.02000
C623        C  0.29123897  0.70459765  0.71920129    -0.15700
C624        C  0.27075333  0.78468659  0.73084195    -0.15400
C625        C  0.20913903  0.72009395  0.73122975    -0.15800
C626        C  0.29721770  0.69938954  0.76550986    -0.15800
C627        C  0.27558614  0.77959751  0.77846124    -0.15300
C628        C  0.21489165  0.71595029  0.77852392    -0.15700
C629        C  0.74754439  0.75201523  0.70662896     0.47100
H630        H  0.74814399  0.75774692  0.66867180    -0.02000
C631        C  0.74656263  0.73882542  0.79467529     0.47100
H632        H  0.74361911  0.73154456  0.83175683    -0.02000
C633        C  0.71462533  0.71285592  0.72114991    -0.15700
C634        C  0.79547023  0.73529397  0.72617224    -0.15400
C635        C  0.72873867  0.79454988  0.73393252    -0.15800
C636        C  0.71470977  0.70555610  0.76773129    -0.15800
C637        C  0.79637172  0.73149589  0.77424117    -0.15300
C638        C  0.72839442  0.78750150  0.78127781    -0.15700
C639        C  0.12771489  0.68521499  0.63259867     0.25200
C640        C  0.11859057  0.63774590  0.64187320    -0.22900
C641        C  0.13691653  0.61845974  0.68280438     0.20100
C642        C  0.16516898  0.64490671  0.71228941     0.25100
C643        C  0.17409078  0.69258993  0.70331685    -0.22900
C644        C  0.15468088  0.71215509  0.66303165     0.20000
F645        F  0.16268788  0.75751654  0.65241065    -0.12800
F646        F  0.11070050  0.70613880  0.59410611    -0.15200
F647        F  0.18745239  0.62204441  0.74685556    -0.15200
F648        F  0.12961506  0.57295827  0.69343396    -0.12800
C649        C  0.13379070  0.69293589  0.80817182     0.25200
C650        C  0.18303042  0.68949157  0.81114301    -0.22900
C651        C  0.20197394  0.65826462  0.84447589     0.20100
C652        C  0.17308600  0.63131561  0.87263131     0.25100
C653        C  0.12469844  0.63342872  0.86793131    -0.22900
C654        C  0.10489029  0.66452371  0.83586873     0.20000
F655        F  0.05765962  0.66690465  0.83103752    -0.12800
F656        F  0.11363455  0.72325226  0.77814083    -0.15200
F657        F  0.19266855  0.60188034  0.90396631    -0.15200
F658        F  0.24852309  0.65113185  0.84909275    -0.12800
C659        C  0.17784434  0.35679051  0.87742809     0.25200
C660        C  0.12904146  0.35643921  0.87433389    -0.22900
C661        C  0.10736137  0.32584011  0.84329656     0.20100
C662        C  0.13443989  0.29710969  0.81453344     0.25100
C663        C  0.18383523  0.29862619  0.81609803    -0.22900
C664        C  0.20492562  0.32821254  0.84905991     0.20000
F665        F  0.25193484  0.33125702  0.85341183    -0.12800
F666        F  0.19954386  0.38562783  0.90758441    -0.15200
F667        F  0.11233194  0.26764694  0.78533750    -0.15200
F668        F  0.05991899  0.32376892  0.84092640    -0.12800
C669        C  0.14548186  0.38228355  0.68682538     0.25200
C670        C  0.11914542  0.36340047  0.65031052    -0.22900
C671        C  0.11843300  0.31464250  0.64520073     0.20100
C672        C  0.14436747  0.28582289  0.67496287     0.25100
C673        C  0.17141374  0.30482442  0.71066023    -0.22900
C674        C  0.17126837  0.35339247  0.71656781     0.20000
F675        F  0.19949351  0.37338533  0.74844919    -0.12800
F676        F  0.14887519  0.42900917  0.69216480    -0.15200
F677        F  0.14424746  0.23916778  0.66806911    -0.15200
F678        F  0.09292967  0.29465624  0.61115686    -0.12800
C679        C  0.86459347  0.30905692  0.62692051     0.25200
C680        C  0.86561703  0.35725149  0.63647100    -0.22900
C681        C  0.84153898  0.37327461  0.67564156     0.20100
C682        C  0.81944539  0.34212423  0.70565330     0.25100
C683        C  0.82064621  0.29389554  0.69767492    -0.22900
C684        C  0.84193601  0.27782479  0.65710560     0.20000
F685        F  0.84085290  0.23183108  0.64683134    -0.12800
F686        F  0.88571041  0.29189497  0.58864108    -0.15200
F687        F  0.79836004  0.35919922  0.74383239    -0.15200
F688        F  0.83868747  0.41928088  0.68514789    -0.12800
C689        C  0.89472954  0.34153689  0.81977400     0.25200
C690        C  0.88250879  0.34470195  0.86666839    -0.22900
C691        C  0.85239152  0.31046828  0.88487031     0.20100
C692        C  0.83039637  0.27827615  0.85585695     0.25100
C693        C  0.83473581  0.28151068  0.80719230    -0.22900
C694        C  0.87339165  0.30823870  0.79117470     0.20000
F695        F  0.89410695  0.29961788  0.75008139    -0.12800
F696        F  0.92910525  0.36901353  0.80201164    -0.15200
F697        F  0.80673151  0.24256902  0.87604875    -0.15200
F698        F  0.84328821  0.30842696  0.93082607    -0.12800
C699        C  0.89491330  0.64891177  0.81445563     0.25200
C700        C  0.88164764  0.64181030  0.86068874    -0.22900
C701        C  0.85160767  0.67463893  0.88073267     0.20100
C702        C  0.82946011  0.70856962  0.85349828     0.25100
C703        C  0.83453912  0.70911442  0.80477436    -0.22900
C704        C  0.87384825  0.68427596  0.78778032     0.20000
F705        F  0.89517064  0.69649770  0.74773643    -0.12800
F706        F  0.93033045  0.62370770  0.79586740    -0.15200
F707        F  0.80571772  0.74264743  0.87568525    -0.15200
F708        F  0.84345431  0.67395900  0.92691998    -0.12800
C709        C  0.84489408  0.72022705  0.65556742     0.25200
C710        C  0.82174892  0.70295929  0.69485727    -0.22900
C711        C  0.82024335  0.65427232  0.70169594     0.20100
C712        C  0.84309530  0.62400741  0.67135223     0.25100
C713        C  0.86719975  0.64123583  0.63247131    -0.22900
C714        C  0.86754221  0.68994318  0.62485596     0.20000
F715        F  0.89085436  0.70892684  0.58854863    -0.12800
F716        F  0.84632346  0.76673716  0.64734291    -0.15200
F717        F  0.84145987  0.57759346  0.68013606    -0.15200
F718        F  0.79836426  0.63587102  0.73910189    -0.12800
C719        C  0.63909184  0.17153016  0.87541524     0.25200
C720        C  0.63827856  0.12343012  0.86983272    -0.22900
C721        C  0.66647697  0.10303392  0.83574526     0.20100
C722        C  0.69542671  0.13079340  0.80754530     0.25100
C723        C  0.69571049  0.17959093  0.81223682    -0.22900
C724        C  0.66707732  0.19937530  0.84696828     0.20000
F725        F  0.66424754  0.24586698  0.85296385    -0.12800
F726        F  0.61168409  0.19181571  0.90792767    -0.15200
F727        F  0.72351353  0.10989118  0.77607527    -0.15200
F728        F  0.66630736  0.05620324  0.83013651    -0.12800
C729        C  0.61357147  0.15029517  0.68274905     0.25200
C730        C  0.63185633  0.12409305  0.64585245    -0.22900
C731        C  0.68099670  0.12349585  0.63981736     0.20100
C732        C  0.71063672  0.14894008  0.66917830     0.25100
C733        C  0.69225981  0.17508944  0.70577573    -0.22900
C734        C  0.64327516  0.17526688  0.71228133     0.20000
F735        F  0.62364731  0.20251200  0.74510788    -0.12800
F736        F  0.56663406  0.15378401  0.68922817    -0.15200
F737        F  0.75758696  0.14826328  0.66169596    -0.15200
F738        F  0.70066344  0.09814819  0.60553847    -0.12800
C739        C  0.32355760  0.10454104  0.66551659     0.25200
C740        C  0.34867514  0.12481376  0.62879609    -0.22900
C741        C  0.34153338  0.17153950  0.61823218     0.20100
C742        C  0.31356467  0.19915931  0.64644121     0.25100
C743        C  0.29023191  0.18030223  0.68586235    -0.22900
C744        C  0.29341249  0.13168180  0.69286304     0.20000
F745        F  0.26799433  0.11042789  0.72654015    -0.12800
F746        F  0.32796832  0.05839928  0.67463288    -0.15200
F747        F  0.31185939  0.24473061  0.63502811    -0.15200
F748        F  0.36344302  0.19121520  0.58128030    -0.12800
C749        C  0.31396175  0.12721123  0.86469684     0.25200
C750        C  0.36140109  0.11945607  0.85309056    -0.22900
C751        C  0.37787492  0.13780472  0.81071037     0.20100
C752        C  0.34850942  0.16417773  0.78186584     0.25100
C753        C  0.30128129  0.17218023  0.79373794    -0.22900
C754        C  0.28445598  0.15305612  0.83540592     0.20000
F755        F  0.23957494  0.16108544  0.84875773    -0.12800
F756        F  0.29605569  0.11077678  0.90505357    -0.15200
F757        F  0.36788812  0.18569445  0.74464744    -0.15200
F758        F  0.42325627  0.13283108  0.79787631    -0.12800
C759        C  0.71328191  0.85199737  0.66960392     0.25200
C760        C  0.69686808  0.82806603  0.70891376    -0.22900
C761        C  0.64833848  0.82998492  0.71872576     0.20100
C762        C  0.61755206  0.85534870  0.69041272     0.25100
C763        C  0.63384282  0.87847217  0.65045566    -0.22900
C764        C  0.68234387  0.87663522  0.64070277     0.20000
F765        F  0.70011536  0.89821216  0.60272021    -0.12800
F766        F  0.75940832  0.85026934  0.65824570    -0.15200
F767        F  0.57123192  0.85460626  0.70091134    -0.15200
F768        F  0.62951166  0.80353588  0.75294698    -0.12800
C769        C  0.70124179  0.86582335  0.81309492     0.25200
C770        C  0.70114255  0.81672759  0.81559453    -0.22900
C771        C  0.67205276  0.79551568  0.84958897     0.20100
C772        C  0.64389325  0.82213780  0.87887864     0.25100
C773        C  0.64243969  0.87050057  0.87453653    -0.22900
C774        C  0.67159268  0.89230856  0.84168309     0.20000
F775        F  0.67132287  0.93932606  0.83727578    -0.12800
F776        F  0.72980590  0.88825681  0.78276980    -0.15200
F777        F  0.61668807  0.80028429  0.91084563    -0.15200
F778        F  0.66810832  0.74877971  0.85350736    -0.12800
C779        C  0.30084260  0.86138217  0.80324940     0.25200
C780        C  0.30153988  0.81266022  0.81052580    -0.22900
C781        C  0.32886207  0.79590671  0.84843319     0.20100
C782        C  0.35618658  0.82571649  0.87479170     0.25100
C783        C  0.35821950  0.87287314  0.86458808    -0.22900
C784        C  0.32967246  0.89101688  0.82939660     0.20000
F785        F  0.32941664  0.93744063  0.82063623    -0.12800
F786        F  0.27189080  0.88059219  0.77134139    -0.15200
F787        F  0.38176198  0.80801006  0.91029647    -0.15200
F788        F  0.33159940  0.75060068  0.86070805    -0.12800
C789        C  0.37394239  0.85028765  0.67637077     0.25200
C790        C  0.35284028  0.87293310  0.63855613    -0.22900
C791        C  0.30387059  0.86846401  0.63312350     0.20100
C792        C  0.27717516  0.84150847  0.66428440     0.25100
C793        C  0.29844292  0.81862672  0.70182700    -0.22900
C794        C  0.34732144  0.82335900  0.70722769     0.20000
F795        F  0.37010649  0.80059519  0.74147065    -0.12800
F796        F  0.42097232  0.85288717  0.68287383    -0.15200
F797        F  0.23027482  0.83762563  0.65768270    -0.15200
F798        F  0.28137676  0.89055692  0.59814136    -0.12800
C799        C  0.37394289  0.68318376  0.80212483     0.25200
C800        C  0.33094985  0.66690560  0.78578409    -0.22900
C801        C  0.31988877  0.61961914  0.78949462     0.20100
C802        C  0.34799689  0.59038437  0.81605977     0.25100
C803        C  0.38795952  0.60842718  0.83814100    -0.22900
C804        C  0.40265107  0.65403145  0.82770349     0.20000
F805        F  0.44339773  0.67155805  0.84440463    -0.12800
F806        F  0.38762019  0.72775150  0.79477287    -0.15200
F807        F  0.33486103  0.54534333  0.82137776    -0.15200
F808        F  0.28025968  0.60256528  0.77005699    -0.12800
C809        C  0.29470070  0.64458550  0.65823568     0.25200
C810        C  0.31767265  0.67794775  0.68491698    -0.22900
C811        C  0.36634702  0.68327818  0.68119112     0.20100
C812        C  0.39191442  0.65446655  0.65230191     0.25100
C813        C  0.36889810  0.62066693  0.62595487    -0.22900
C814        C  0.32004232  0.61592740  0.62906037     0.20000
F815        F  0.29635295  0.58475563  0.60297723    -0.12800
F816        F  0.24775707  0.63919590  0.66054763    -0.15200
F817        F  0.43921190  0.65942729  0.65035071    -0.15200
F818        F  0.38916261  0.71671812  0.70494913    -0.12800
C819        C  0.60853985  0.64636455  0.81729194     0.25200
C820        C  0.62968142  0.61726581  0.85031483    -0.22900
C821        C  0.67871398  0.61243049  0.85092054     0.20100
C822        C  0.70624540  0.63973534  0.82206704     0.25100
C823        C  0.68522896  0.67150575  0.79182529    -0.22900
C824        C  0.63625773  0.67371702  0.78838587     0.20000
F825        F  0.61529364  0.70465878  0.75955068    -0.12800
F826        F  0.56123728  0.64936148  0.81373929    -0.15200
F827        F  0.75355701  0.63636028  0.82491260    -0.15200
F828        F  0.70039519  0.58354651  0.88134967    -0.12800
C829        C  0.65532196  0.61267860  0.66089815     0.25200
C830        C  0.62361425  0.63620003  0.63209434    -0.22900
C831        C  0.62351051  0.68495715  0.63098015     0.20100
C832        C  0.65498602  0.70972100  0.65808686     0.25100
C833        C  0.68554346  0.68631360  0.68824902    -0.22900
C834        C  0.68574970  0.63745520  0.68891311     0.20000
F835        F  0.71535688  0.61334935  0.71654809    -0.12800
F836        F  0.65674863  0.56546612  0.66217240    -0.15200
F837        F  0.65486986  0.75659886  0.65499447    -0.15200
F838        F  0.59432109  0.70883918  0.60254265    -0.12800
C839        C  0.61568374  0.35766334  0.82802096     0.25200
C840        C  0.63961055  0.38460146  0.86051253    -0.22900
C841        C  0.68873784  0.38434216  0.86200708     0.20100
C842        C  0.71361796  0.35572205  0.83251257     0.25100
C843        C  0.68968656  0.32744105  0.80120843    -0.22900
C844        C  0.64065772  0.32906172  0.79843712     0.20000
F845        F  0.61695432  0.30092448  0.76915763    -0.12800
F846        F  0.56816685  0.35830085  0.82572088    -0.15200
F847        F  0.76104073  0.35518487  0.83498234    -0.15200
F848        F  0.71264231  0.40933453  0.89386462    -0.12800
C849        C  0.66144774  0.39976329  0.67345569     0.25200
C850        C  0.63179388  0.37992592  0.64048663    -0.22900
C851        C  0.62997830  0.33136679  0.63596797     0.20100
C852        C  0.65793203  0.30314054  0.66331595     0.25100
C853        C  0.68739989  0.32248456  0.69669628    -0.22900
C854        C  0.68895044  0.37130906  0.70153811     0.20000
F855        F  0.71691327  0.39192889  0.73309513    -0.12800
F856        F  0.66322140  0.44657468  0.67915915    -0.15200
F857        F  0.65521360  0.25661569  0.65741004    -0.15200
F858        F  0.60197197  0.31081344  0.60420860    -0.12800
C859        C  0.39291492  0.31765276  0.85466439     0.25200
C860        C  0.39280655  0.36638290  0.85262009    -0.22900
C861        C  0.36241493  0.38946523  0.82208888     0.20100
C862        C  0.33154360  0.36410564  0.79488443     0.25100
C863        C  0.33078120  0.31533987  0.79789090    -0.22900
C864        C  0.36169767  0.29244118  0.82793529     0.20000
F865        F  0.36116916  0.24565102  0.83246866    -0.12800
F866        F  0.42078499  0.29427602  0.88476961    -0.15200
F867        F  0.30037669  0.38725705  0.76791106    -0.15200
F868        F  0.36165659  0.43664058  0.81963897    -0.12800
C869        C  0.29959265  0.35103028  0.66181836     0.25200
C870        C  0.31982997  0.32068641  0.69407491    -0.22900
C871        C  0.36884141  0.31589068  0.69553210     0.20100
C872        C  0.39713625  0.34226949  0.66616690     0.25100
C873        C  0.37675867  0.37254572  0.63371536    -0.22900
C874        C  0.32772383  0.37691487  0.63203013     0.20000
F875        F  0.30665370  0.40505480  0.60051983    -0.12600
F876        F  0.25249839  0.35540808  0.65861134    -0.15200
F877        F  0.44435383  0.33818268  0.66974778    -0.15200
F878        F  0.38934039  0.28436832  0.72408885    -0.12800
loop_ 
_geom_bond_atom_site_label_1 
_geom_bond_atom_site_label_2 
_geom_bond_distance 
_geom_bond_site_symmetry_2 
_ccdc_geom_bond_type 
C1           N19   1.347       .  A
C1           C38   1.459       .  S
C1          C434   1.467       .  S
N2           N19   1.319       .  A
N2           N24   1.316       .  A
N2          Co39   2.065   1_554  S
C3           N28   1.332       .  A
C3           C41   1.448       .  S
C3           H48   1.082       .  S
H4           C45   1.082       .  S
C5           N29   1.340       .  A
C5            C9   1.463       .  S
C5           H34   1.082       .  S
Co6          N24   2.066   1_556  S
Co6          N14   2.063   1_556  S
Co6         N485   2.065       .  S
Co6         N461   2.063       .  S
Co6         Cl50   2.433       .  S
N7           C45   1.338       .  A
N7           N14   1.317       .  A
N7         Co447   2.062       .  S
Co8          N28   2.046       .  S
Co8          N15   2.058       .  S
Co8         N446   2.062       .  S
Co8         N450   2.052       .  S
Co8        Cl489   2.430       .  S
C9           N47   1.343       .  A
C9          C391   1.463       .  S
N10          N17   1.318       .  A
N10          N40   1.318       .  A
N10        Co482   2.061   1_554  S
N11          N29   1.317       .  A
N11          N47   1.316       .  A
N11        Co447   2.052       .  S
N12          C41   1.346       .  A
N12          N22   1.319       .  A
H13          C38   1.082       .  S
N14          N35   1.316       .  A
N15          N33   1.315       .  A
N15          N20   1.317       .  A
C16          N20   1.344       .  A
C16          C44   1.459       .  S
C16         C381   1.461       .  S
N17          C32   1.334       .  A
N17         Co39   2.060   1_554  S
C18          N46   1.337       .  A
C18          C21   1.459       .  S
C18          H52   1.082       .  S
C21          N42   1.345       .  A
C21         C421   1.461       .  S
N22          N28   1.316       .  A
N22        Co445   2.063       .  S
N23          C49   1.336       .  A
N23          N25   1.315       .  A
N23        Co478   2.056       .  S
N24          C38   1.337       .  A
N25          N53   1.317       .  A
N25         Co43   2.065       .  S
H26          C49   1.080       .  S
H27          C44   1.080       .  S
N29        Co482   2.076   1_554  S
N30          N42   1.319       .  A
N30          N46   1.316       .  A
N30        Co478   2.060       .  S
C31          N35   1.345       .  A
C31          C45   1.459       .  S
C31         C411   1.463       .  S
C32          C51   1.456       .  S
C32          H36   1.082       .  S
N33          C44   1.337       .  A
N33         Co43   2.060       .  S
C37          N53   1.348       .  A
C37          C49   1.460       .  S
C37         C364   1.468       .  S
Co39        N462   2.056       .  S
Co39        N469   2.060       .  S
Co39        Cl50   2.432       .  S
N40          C51   1.346       .  A
C41         C401   1.450       .  S
Co43        N449   2.061       .  S
Co43        N468   2.076       .  S
Co43       Cl489   2.437       .  S
N46        Co445   2.065       .  S
Cl50       Co447   2.430   1_556  S
Cl50       Co482   2.437       .  S
C51         C374   1.458       .  S
C54          N72   1.353       .  A
C54          C91   1.472       .  S
C54         C324   1.503       .  S
N55          N72   1.327       .  A
N55          N77   1.322       .  A
N55         Co92   2.096       .  S
C56          N81   1.340       .  A
C56          C94   1.454       .  S
C56         H101   1.081       .  S
H57          C98   1.081       .  S
C58          N82   1.344       .  A
C58          C62   1.459       .  S
C58          H87   1.081       .  S
Co59         N77   2.106       .  S
Co59         N67   2.096       .  S
Co59         N99   2.099   1_565  S
Co59         N75   2.103   1_565  S
Co59       Cl103   2.465       .  S
N60          C98   1.346       .  A
N60          N67   1.322       .  A
N60         Co61   2.105   1_554  S
Co61         N81   2.079   1_566  S
Co61        N503   2.082       .  S
Co61        N507   2.106   1_565  S
Co61       Cl103   2.459   1_556  S
C62         N100   1.346       .  A
C62         C344   1.471       .  S
N63          N70   1.324       .  A
N63          N93   1.329       .  A
N63         Co96   2.104       .  S
N64          N82   1.324       .  A
N64         N100   1.325       .  A
N64        Co500   2.082       .  S
N65          C94   1.352       .  A
N65          N75   1.328       .  A
H66          C91   1.079       .  S
N67          N88   1.326       .  A
N68          N86   1.321       .  A
N68          N73   1.329       .  A
N68        Co500   2.106   1_545  S
C69          N73   1.356       .  A
C69          C97   1.470       .  S
C69         C311   1.506       .  S
N70          C85   1.345       .  A
N70        Co531   2.101       .  S
C71          N99   1.344       .  A
C71          C74   1.469       .  S
C71         H105   1.080       .  S
C74          N95   1.357       .  A
C74         C291   1.505       .  S
N75          N81   1.323       .  A
N76         C102   1.342       .  A
N76          N78   1.323       .  A
N76        Co531   2.091   1_545  S
N77          C91   1.346       .  A
N78         N106   1.325       .  A
N78         Co96   2.087   1_545  S
H79         C102   1.080       .  S
H80          C97   1.079       .  S
N82         Co96   2.095       .  S
N83          N95   1.330       .  A
N83          N99   1.322       .  A
N83         Co92   2.109   1_545  S
C84          N88   1.353       .  A
C84          C98   1.470       .  S
C84         C351   1.498       .  S
C85         C104   1.460       .  S
C85          H89   1.080       .  S
N86          C97   1.344       .  A
N86         Co96   2.097   1_545  S
C90         N106   1.348       .  A
C90         C102   1.458       .  S
C90         C281   1.471       .  S
Co92        N509   2.101   1_554  S
Co92        N515   2.091   1_564  S
Co92       Cl103   2.461       .  S
N93         C104   1.352       .  A
C94         C301   1.475       .  S
Co96       Cl542   2.467       .  S
Cl103      Co535   2.467   1_554  S
C104        C334   1.485       .  S
C107        N125   1.351       .  A
C107        C144   1.470       .  S
C107        C241   1.492       .  S
N108        N125   1.325       .  A
N108        N130   1.321       .  A
N108       Co145   2.083       .  S
C109        N134   1.344       .  A
C109        C147   1.470       .  S
C109        H154   1.080       .  S
H110        C151   1.080       .  S
C111        N135   1.350       .  A
C111        C115   1.473       .  S
C111        H140   1.082       .  S
Co112       N130   2.096       .  S
Co112       N120   2.107       .  S
Co112       N152   2.092   1_655  S
Co112       N128   2.098   1_655  S
Co112      Cl156   2.469       .  S
N113        C151   1.339       .  A
N113        N120   1.319       .  A
N113       Co114   2.080   1_554  S
Co114       N134   2.096   1_656  S
Co114       N556   2.082       .  S
Co114       N560   2.084   1_655  S
Co114      Cl156   2.443   1_556  S
C115        N153   1.346       .  A
C115        C261   1.491       .  S
N116        N123   1.323       .  A
N116        N146   1.331       .  A
N116       Co149   2.113       .  S
N117        N135   1.324       .  A
N117        N153   1.323       .  A
N117       Co553   2.082       .  S
N118        C147   1.356       .  A
N118        N128   1.327       .  A
H119        C144   1.079       .  S
N120        N141   1.329       .  A
N121        N139   1.324       .  A
N121        N126   1.325       .  A
N121       Co553   2.084   1_455  S
C122        N126   1.346       .  A
C122        C150   1.456       .  S
C122        C214   1.467       .  S
N123        C138   1.340       .  A
N123       Co584   2.089       .  S
C124        N152   1.342       .  A
C124        C127   1.464       .  S
C124        H158   1.080       .  S
C127        N148   1.355       .  A
C127        C231   1.496       .  S
N128        N134   1.320       .  A
N129        C155   1.343       .  A
N129        N131   1.323       .  A
N129       Co584   2.090   1_455  S
N130        C144   1.340       .  A
N131        N159   1.328       .  A
N131       Co149   2.105   1_455  S
H132        C155   1.082       .  S
H133        C150   1.083       .  S
N135       Co149   2.117       .  S
N136        N148   1.328       .  A
N136        N152   1.321       .  A
N136       Co145   2.102   1_455  S
C137        N141   1.359       .  A
C137        C151   1.463       .  S
C137        C274   1.499       .  S
C138        C157   1.459       .  S
C138        H142   1.081       .  S
N139        C150   1.341       .  A
N139       Co149   2.088   1_455  S
C143        N159   1.352       .  A
C143        C155   1.458       .  S
C143        C221   1.479       .  S
Co145       N562   2.089   1_554  S
Co145       N568   2.090   1_654  S
Co145      Cl156   2.451       .  S
N146        C157   1.358       .  A
C147        C201   1.502       .  S
Co149      Cl595   2.478       .  S
Cl156      Co588   2.478   1_554  S
C157        C251   1.495       .  S
C160        H161   1.108       .  S
C160        C166   1.547       .  S
C160        C165   1.539       .  S
C160        C164   1.535       .  S
C162        H163   1.110       .  S
C162        C168   1.546       .  S
C162        C167   1.532       .  S
C162        C169   1.549       .  S
C164        C167   1.369       .  D
C164        C431   1.476       .  S
C165        C168   1.380       .  D
C165        C234   1.497       .  S
C166        C169   1.393       .  D
C166        C304   1.521       .  S
C167        C424   1.475       .  S
C168        C224   1.512       .  S
C169        C314   1.505       .  S
C170        H171   1.112       .  S
C170        C176   1.549       .  S
C170        C175   1.546       .  S
C170        C174   1.530       .  S
C172        H173   1.099       .  S
C172        C178   1.540       .  S
C172        C177   1.532       .  S
C172        C179   1.555       .  S
C174        C177   1.363       .  D
C174        C414   1.481       .  S
C175        C178   1.379       .  D
C175        C294   1.505       .  S
C176        C179   1.399       .  D
C176        C244   1.492       .  S
C177        C404   1.462       .  S
C178        C284   1.506       .  S
C179        C254   1.543       .  S
C180        H181   1.111       .  S
C180        C186   1.555       .  S
C180        C185   1.557       .  S
C180        C184   1.522       .  S
C182        H183   1.094       .  S
C182        C188   1.537       .  S
C182        C187   1.538       .  S
C182        C189   1.536       .  S
C184        C187   1.360       .  D
C184        C371   1.467       .  S
C185        C188   1.394       .  D
C185        C354   1.506       .  S
C186        C189   1.385       .  D
C186        C204   1.513       .  S
C187        C361   1.464       .  S
C188        C341   1.526       .  S
C189        C211   1.512       .  S
C190        H191   1.111       .  S
C190        C196   1.557       .  S
C190        C195   1.557       .  S
C190        C194   1.522       .  S
C192        H193   1.096       .  S
C192        C198   1.554       .  S
C192        C197   1.537       .  S
C192        C199   1.541       .  S
C194        C197   1.365       .  D
C194        C394   1.480       .  S
C195        C198   1.397       .  D
C195        C271   1.504       .  S
C196        C199   1.386       .  D
C196        C321   1.509       .  S
C197        C384   1.463       .  S
C198        C264   1.543       .  S
C199        C331   1.520       .  S
C200        C201   1.413       .  A
C200        C205   1.407       .  A
C200        F207   1.355       .  S
C201        C202   1.408       .  A
C202        C203   1.403       .  A
C202        F209   1.358       .  S
C203        C204   1.417       .  A
C203        F208   1.355       .  S
C204        C205   1.407       .  A
C205        F206   1.357       .  S
C210        C211   1.412       .  A
C210        C215   1.407       .  A
C210        F217   1.357       .  S
C211        C212   1.423       .  A
C212        C213   1.391       .  A
C212        F219   1.352       .  S
C213        C214   1.390       .  A
C213        F218   1.359       .  S
C214        C215   1.405       .  A
C215        F216   1.358       .  S
C220        C221   1.396       .  A
C220        C225   1.399       .  A
C220        F227   1.358       .  S
C221        C222   1.406       .  A
C222        C223   1.408       .  A
C222        F229   1.357       .  S
C223        C224   1.411       .  A
C223        F228   1.357       .  S
C224        C225   1.418       .  A
C225        F226   1.351       .  S
C230        C231   1.410       .  A
C230        C235   1.403       .  A
C230        F237   1.357       .  S
C231        C232   1.411       .  A
C232        C233   1.405       .  A
C232        F239   1.357       .  S
C233        C234   1.405       .  A
C233        F238   1.358       .  S
C234        C235   1.408       .  A
C235        F236   1.357       .  S
C240        C241   1.415       .  A
C240        C245   1.406       .  A
C240        F247   1.358       .  S
C241        C242   1.406       .  A
C242        C243   1.394       .  A
C242        F249   1.356       .  S
C243        C244   1.408       .  A
C243        F248   1.354       .  S
C244        C245   1.404       .  A
C245        F246   1.358       .  S
C250        C251   1.406       .  A
C250        C255   1.409       .  A
C250        F257   1.358       .  S
C251        C252   1.406       .  A
C252        C253   1.403       .  A
C252        F259   1.357       .  S
C253        C254   1.418       .  A
C253        F258   1.357       .  S
C254        C255   1.420       .  A
C255        F256   1.353       .  S
C260        C261   1.405       .  A
C260        C265   1.409       .  A
C260        F267   1.357       .  S
C261        C262   1.404       .  A
C262        C263   1.403       .  A
C262        F269   1.358       .  S
C263        C264   1.419       .  A
C263        F268   1.357       .  S
C264        C265   1.420       .  A
C265        F266   1.354       .  S
C270        C271   1.403       .  A
C270        C275   1.406       .  A
C270        F277   1.358       .  S
C271        C272   1.413       .  A
C272        C273   1.402       .  A
C272        F279   1.354       .  S
C273        C274   1.406       .  A
C273        F278   1.358       .  S
C274        C275   1.417       .  A
C275        F276   1.355       .  S
C280        C281   1.394       .  A
C280        C285   1.395       .  A
C280        F287   1.359       .  S
C281        C282   1.405       .  A
C282        C283   1.405       .  A
C282        F289   1.358       .  S
C283        C284   1.411       .  A
C283        F288   1.357       .  S
C284        C285   1.418       .  A
C285        F286   1.352       .  S
C290        C291   1.412       .  A
C290        C295   1.406       .  A
C290        F297   1.357       .  S
C291        C292   1.413       .  A
C292        C293   1.409       .  A
C292        F299   1.357       .  S
C293        C294   1.405       .  A
C293        F298   1.357       .  S
C294        C295   1.411       .  A
C295        F296   1.357       .  S
C300        C301   1.405       .  A
C300        C305   1.409       .  A
C300        F307   1.357       .  S
C301        C302   1.392       .  A
C302        C303   1.394       .  A
C302        F309   1.359       .  S
C303        C304   1.425       .  A
C303        F308   1.350       .  S
C304        C305   1.415       .  A
C305        F306   1.357       .  S
C310        C311   1.413       .  A
C310        C315   1.407       .  A
C310        F317   1.357       .  S
C311        C312   1.413       .  A
C312        C313   1.404       .  A
C312        F319   1.355       .  S
C313        C314   1.410       .  A
C313        F318   1.357       .  S
C314        C315   1.407       .  A
C315        F316   1.358       .  S
C320        C321   1.406       .  A
C320        C325   1.407       .  A
C320        F327   1.358       .  S
C321        C322   1.415       .  A
C322        C323   1.405       .  A
C322        F329   1.356       .  S
C323        C324   1.409       .  A
C323        F328   1.356       .  S
C324        C325   1.414       .  A
C325        F326   1.357       .  S
C330        C331   1.413       .  A
C330        C335   1.411       .  A
C330        F337   1.357       .  S
C331        C332   1.421       .  A
C332        C333   1.400       .  A
C332        F339   1.353       .  S
C333        C334   1.396       .  A
C333        F338   1.358       .  S
C334        C335   1.407       .  A
C335        F336   1.357       .  S
C340        C341   1.416       .  A
C340        C345   1.409       .  A
C340        F347   1.357       .  S
C341        C342   1.430       .  A
C342        C343   1.391       .  A
C342        F349   1.351       .  S
C343        C344   1.387       .  A
C343        F348   1.359       .  S
C344        C345   1.405       .  A
C345        F346   1.357       .  S
C350        C351   1.408       .  A
C350        C355   1.401       .  A
C350        F357   1.358       .  S
C351        C352   1.413       .  A
C352        C353   1.408       .  A
C352        F359   1.356       .  S
C353        C354   1.407       .  A
C353        F358   1.357       .  S
C354        C355   1.411       .  A
C355        F356   1.353       .  S
C360        C361   1.398       .  A
C360        C365   1.386       .  A
C360        F367   1.355       .  S
C361        C362   1.399       .  A
C362        C363   1.392       .  A
C362        F369   1.357       .  S
C363        C364   1.409       .  A
C363        F368   1.356       .  S
C364        C365   1.407       .  A
C365        F366   1.358       .  S
C370        C371   1.399       .  A
C370        C375   1.388       .  A
C370        F377   1.350       .  S
C371        C372   1.402       .  A
C372        C373   1.389       .  A
C372        F379   1.353       .  S
C373        C374   1.403       .  A
C373        F378   1.359       .  S
C374        C375   1.404       .  A
C375        F376   1.357       .  S
C380        C381   1.405       .  A
C380        C385   1.391       .  A
C380        F387   1.357       .  S
C381        C382   1.407       .  A
C382        C383   1.386       .  A
C382        F389   1.358       .  S
C383        C384   1.398       .  A
C383        F388   1.357       .  S
C384        C385   1.403       .  A
C385        F386   1.357       .  S
C390        C391   1.404       .  A
C390        C395   1.389       .  A
C390        F397   1.359       .  S
C391        C392   1.402       .  A
C392        C393   1.393       .  A
C392        F399   1.357       .  S
C393        C394   1.405       .  A
C393        F398   1.350       .  S
C394        C395   1.405       .  A
C395        F396   1.354       .  S
C400        C401   1.401       .  A
C400        C405   1.389       .  A
C400        F407   1.358       .  S
C401        C402   1.403       .  A
C402        C403   1.386       .  A
C402        F409   1.358       .  S
C403        C404   1.400       .  A
C403        F408   1.356       .  S
C404        C405   1.403       .  A
C405        F406   1.357       .  S
C410        C411   1.401       .  A
C410        C415   1.394       .  A
C410        F417   1.358       .  S
C411        C412   1.404       .  A
C412        C413   1.385       .  A
C412        F419   1.358       .  S
C413        C414   1.401       .  A
C413        F418   1.352       .  S
C414        C415   1.413       .  A
C415        F416   1.354       .  S
C420        C421   1.402       .  A
C420        C425   1.388       .  A
C420        F427   1.357       .  S
C421        C422   1.405       .  A
C422        C423   1.392       .  A
C422        F429   1.358       .  S
C423        C424   1.405       .  A
C423        F428   1.358       .  S
C424        C425   1.403       .  A
C425        F426   1.351       .  S
C430        C431   1.401       .  A
C430        C435   1.390       .  A
C430        F437   1.354       .  S
C431        C432   1.407       .  A
C432        C433   1.393       .  A
C432        F439   1.357       .  S
C433        C434   1.405       .  A
C433        F438   1.357       .  S
C434        C435   1.406       .  A
C435        F436   1.358       .  S
C440        N458   1.347       .  A
C440        C477   1.459       .  S
C440        C873   1.467       .  S
N441        N458   1.319       .  A
N441        N463   1.316       .  A
N441       Co478   2.065       .  S
C442        N467   1.332       .  A
C442        C480   1.448       .  S
C442        H487   1.082       .  S
H443        C484   1.082       .  S
C444        N468   1.340       .  A
C444        C448   1.463       .  S
C444        H473   1.082       .  S
Co445       N463   2.066       .  S
Co445       N453   2.063       .  S
Co445      Cl489   2.433       .  S
N446        C484   1.338       .  A
N446        N453   1.317       .  A
Co447       N467   2.046   1_554  S
Co447       N454   2.058   1_554  S
C448        N486   1.343       .  A
C448        C830   1.463       .  S
N449        N456   1.318       .  A
N449        N479   1.318       .  A
N450        N468   1.317       .  A
N450        N486   1.316       .  A
N451        C480   1.346       .  A
N451        N461   1.319       .  A
H452        C477   1.082       .  S
N453        N474   1.316       .  A
N454        N472   1.315       .  A
N454        N459   1.317       .  A
C455        N459   1.344       .  A
C455        C483   1.459       .  S
C455        C820   1.461       .  S
N456        C471   1.334       .  A
N456       Co478   2.060       .  S
C457        N485   1.337       .  A
C457        C460   1.459       .  S
C457        H491   1.082       .  S
C460        N481   1.345       .  A
C460        C860   1.461       .  S
N461        N467   1.316       .  A
N462        C488   1.336       .  A
N462        N464   1.315       .  A
N463        C477   1.337       .  A
N464        N492   1.317       .  A
N464       Co482   2.065       .  S
H465        C488   1.080       .  S
H466        C483   1.080       .  S
N469        N481   1.319       .  A
N469        N485   1.316       .  A
C470        N474   1.345       .  A
C470        C484   1.459       .  S
C470        C850   1.463       .  S
C471        C490   1.456       .  S
C471        H475   1.082       .  S
N472        C483   1.337       .  A
N472       Co482   2.060       .  S
C476        N492   1.348       .  A
C476        C488   1.460       .  S
C476        C803   1.468       .  S
Co478      Cl489   2.432       .  S
N479        C490   1.346       .  A
C480        C840   1.450       .  S
C490        C813   1.458       .  S
C493        N511   1.353       .  A
C493        C530   1.472       .  S
C493        C763   1.503       .  S
N494        N511   1.327       .  A
N494        N516   1.322       .  A
N494       Co531   2.096       .  S
C495        N520   1.340       .  A
C495        C533   1.454       .  S
C495        H540   1.081       .  S
H496        C537   1.081       .  S
C497        N521   1.344       .  A
C497        C501   1.459       .  S
C497        H526   1.081       .  S
Co498       N516   2.106       .  S
Co498       N506   2.096       .  S
Co498       N538   2.099   1_565  S
Co498       N514   2.103   1_565  S
Co498      Cl542   2.465       .  S
N499        C537   1.346       .  A
N499        N506   1.322       .  A
N499       Co500   2.105       .  S
Co500       N520   2.079   1_565  S
Co500      Cl542   2.459       .  S
C501        N539   1.346       .  A
C501        C783   1.471       .  S
N502        N509   1.324       .  A
N502        N532   1.329       .  A
N502       Co535   2.104       .  S
N503        N521   1.324       .  A
N503        N539   1.325       .  A
N504        C533   1.352       .  A
N504        N514   1.328       .  A
H505        C530   1.079       .  S
N506        N527   1.326       .  A
N507        N525   1.321       .  A
N507        N512   1.329       .  A
C508        N512   1.356       .  A
C508        C536   1.470       .  S
C508        C750   1.506       .  S
N509        C524   1.345       .  A
C510        N538   1.344       .  A
C510        C513   1.469       .  S
C510        H544   1.080       .  S
C513        N534   1.357       .  A
C513        C730   1.505       .  S
N514        N520   1.323       .  A
N515        C541   1.342       .  A
N515        N517   1.323       .  A
N516        C530   1.346       .  A
N517        N545   1.325       .  A
N517       Co535   2.087   1_545  S
H518        C541   1.080       .  S
H519        C536   1.079       .  S
N521       Co535   2.095       .  S
N522        N534   1.330       .  A
N522        N538   1.322       .  A
N522       Co531   2.109   1_545  S
C523        N527   1.353       .  A
C523        C537   1.470       .  S
C523        C790   1.498       .  S
C524        C543   1.460       .  S
C524        H528   1.080       .  S
N525        C536   1.344       .  A
N525       Co535   2.097   1_545  S
C529        N545   1.348       .  A
C529        C541   1.458       .  S
C529        C720   1.471       .  S
Co531      Cl542   2.461       .  S
N532        C543   1.352       .  A
C533        C740   1.475       .  S
C543        C773   1.485       .  S
C546        N564   1.351       .  A
C546        C583   1.470       .  S
C546        C680   1.492       .  S
N547        N564   1.325       .  A
N547        N569   1.321       .  A
N547       Co584   2.083       .  S
C548        N573   1.344       .  A
C548        C586   1.470       .  S
C548        H593   1.080       .  S
H549        C590   1.080       .  S
C550        N574   1.350       .  A
C550        C554   1.473       .  S
C550        H579   1.082       .  S
Co551       N569   2.096       .  S
Co551       N559   2.107       .  S
Co551       N591   2.092   1_655  S
Co551       N567   2.098   1_655  S
Co551      Cl595   2.469       .  S
N552        C590   1.339       .  A
N552        N559   1.319       .  A
N552       Co553   2.080       .  S
Co553       N573   2.096   1_655  S
Co553      Cl595   2.443       .  S
C554        N592   1.346       .  A
C554        C700   1.491       .  S
N555        N562   1.323       .  A
N555        N585   1.331       .  A
N555       Co588   2.113       .  S
N556        N574   1.324       .  A
N556        N592   1.323       .  A
N557        C586   1.356       .  A
N557        N567   1.327       .  A
H558        C583   1.079       .  S
N559        N580   1.329       .  A
N560        N578   1.324       .  A
N560        N565   1.325       .  A
C561        N565   1.346       .  A
C561        C589   1.456       .  S
C561        C653   1.467       .  S
N562        C577   1.340       .  A
C563        N591   1.342       .  A
C563        C566   1.464       .  S
C563        H597   1.080       .  S
C566        N587   1.355       .  A
C566        C670   1.496       .  S
N567        N573   1.320       .  A
N568        C594   1.343       .  A
N568        N570   1.323       .  A
N569        C583   1.340       .  A
N570        N598   1.328       .  A
N570       Co588   2.105   1_455  S
H571        C594   1.082       .  S
H572        C589   1.083       .  S
N574       Co588   2.117       .  S
N575        N587   1.328       .  A
N575        N591   1.321       .  A
N575       Co584   2.102   1_455  S
C576        N580   1.359       .  A
C576        C590   1.463       .  S
C576        C713   1.499       .  S
C577        C596   1.459       .  S
C577        H581   1.081       .  S
N578        C589   1.341       .  A
N578       Co588   2.088   1_455  S
C582        N598   1.352       .  A
C582        C594   1.458       .  S
C582        C660   1.479       .  S
Co584      Cl595   2.451       .  S
N585        C596   1.358       .  A
C586        C640   1.502       .  S
C596        C690   1.495       .  S
C599        H600   1.108       .  S
C599        C605   1.547       .  S
C599        C604   1.539       .  S
C599        C603   1.535       .  S
C601        H602   1.110       .  S
C601        C607   1.546       .  S
C601        C606   1.532       .  S
C601        C608   1.549       .  S
C603        C606   1.369       .  D
C603        C870   1.476       .  S
C604        C607   1.380       .  D
C604        C673   1.497       .  S
C605        C608   1.393       .  D
C605        C743   1.521       .  S
C606        C863   1.475       .  S
C607        C663   1.512       .  S
C608        C753   1.505       .  S
C609        H610   1.112       .  S
C609        C615   1.549       .  S
C609        C614   1.546       .  S
C609        C613   1.530       .  S
C611        H612   1.099       .  S
C611        C617   1.540       .  S
C611        C616   1.532       .  S
C611        C618   1.555       .  S
C613        C616   1.363       .  D
C613        C853   1.481       .  S
C614        C617   1.379       .  D
C614        C733   1.505       .  S
C615        C618   1.399       .  D
C615        C683   1.492       .  S
C616        C843   1.462       .  S
C617        C723   1.506       .  S
C618        C693   1.543       .  S
C619        H620   1.111       .  S
C619        C625   1.555       .  S
C619        C624   1.557       .  S
C619        C623   1.522       .  S
C621        H622   1.094       .  S
C621        C627   1.537       .  S
C621        C626   1.538       .  S
C621        C628   1.536       .  S
C623        C626   1.360       .  D
C623        C810   1.467       .  S
C624        C627   1.394       .  D
C624        C793   1.506       .  S
C625        C628   1.385       .  D
C625        C643   1.513       .  S
C626        C800   1.464       .  S
C627        C780   1.526       .  S
C628        C650   1.512       .  S
C629        H630   1.111       .  S
C629        C635   1.557       .  S
C629        C634   1.557       .  S
C629        C633   1.522       .  S
C631        H632   1.096       .  S
C631        C637   1.554       .  S
C631        C636   1.537       .  S
C631        C638   1.541       .  S
C633        C636   1.365       .  D
C633        C833   1.480       .  S
C634        C637   1.397       .  D
C634        C710   1.504       .  S
C635        C638   1.386       .  D
C635        C760   1.509       .  S
C636        C823   1.463       .  S
C637        C703   1.543       .  S
C638        C770   1.520       .  S
C639        C640   1.413       .  A
C639        C644   1.407       .  A
C639        F646   1.355       .  S
C640        C641   1.408       .  A
C641        C642   1.403       .  A
C641        F648   1.358       .  S
C642        C643   1.417       .  A
C642        F647   1.355       .  S
C643        C644   1.407       .  A
C644        F645   1.357       .  S
C649        C650   1.412       .  A
C649        C654   1.407       .  A
C649        F656   1.357       .  S
C650        C651   1.423       .  A
C651        C652   1.391       .  A
C651        F658   1.352       .  S
C652        C653   1.390       .  A
C652        F657   1.359       .  S
C653        C654   1.405       .  A
C654        F655   1.358       .  S
C659        C660   1.396       .  A
C659        C664   1.399       .  A
C659        F666   1.358       .  S
C660        C661   1.406       .  A
C661        C662   1.408       .  A
C661        F668   1.357       .  S
C662        C663   1.411       .  A
C662        F667   1.357       .  S
C663        C664   1.418       .  A
C664        F665   1.351       .  S
C669        C670   1.410       .  A
C669        C674   1.403       .  A
C669        F676   1.357       .  S
C670        C671   1.411       .  A
C671        C672   1.405       .  A
C671        F678   1.357       .  S
C672        C673   1.405       .  A
C672        F677   1.358       .  S
C673        C674   1.408       .  A
C674        F675   1.357       .  S
C679        C680   1.415       .  A
C679        C684   1.406       .  A
C679        F686   1.358       .  S
C680        C681   1.406       .  A
C681        C682   1.394       .  A
C681        F688   1.356       .  S
C682        C683   1.408       .  A
C682        F687   1.354       .  S
C683        C684   1.404       .  A
C684        F685   1.358       .  S
C689        C690   1.406       .  A
C689        C694   1.409       .  A
C689        F696   1.358       .  S
C690        C691   1.406       .  A
C691        C692   1.403       .  A
C691        F698   1.357       .  S
C692        C693   1.418       .  A
C692        F697   1.357       .  S
C693        C694   1.420       .  A
C694        F695   1.353       .  S
C699        C700   1.405       .  A
C699        C704   1.409       .  A
C699        F706   1.357       .  S
C700        C701   1.404       .  A
C701        C702   1.403       .  A
C701        F708   1.358       .  S
C702        C703   1.419       .  A
C702        F707   1.357       .  S
C703        C704   1.420       .  A
C704        F705   1.354       .  S
C709        C710   1.403       .  A
C709        C714   1.406       .  A
C709        F716   1.358       .  S
C710        C711   1.413       .  A
C711        C712   1.402       .  A
C711        F718   1.354       .  S
C712        C713   1.406       .  A
C712        F717   1.358       .  S
C713        C714   1.417       .  A
C714        F715   1.355       .  S
C719        C720   1.394       .  A
C719        C724   1.395       .  A
C719        F726   1.359       .  S
C720        C721   1.405       .  A
C721        C722   1.405       .  A
C721        F728   1.358       .  S
C722        C723   1.411       .  A
C722        F727   1.357       .  S
C723        C724   1.418       .  A
C724        F725   1.352       .  S
C729        C730   1.412       .  A
C729        C734   1.406       .  A
C729        F736   1.357       .  S
C730        C731   1.413       .  A
C731        C732   1.409       .  A
C731        F738   1.357       .  S
C732        C733   1.405       .  A
C732        F737   1.357       .  S
C733        C734   1.411       .  A
C734        F735   1.357       .  S
C739        C740   1.405       .  A
C739        C744   1.409       .  A
C739        F746   1.357       .  S
C740        C741   1.392       .  A
C741        C742   1.394       .  A
C741        F748   1.359       .  S
C742        C743   1.425       .  A
C742        F747   1.350       .  S
C743        C744   1.415       .  A
C744        F745   1.357       .  S
C749        C750   1.413       .  A
C749        C754   1.407       .  A
C749        F756   1.357       .  S
C750        C751   1.413       .  A
C751        C752   1.404       .  A
C751        F758   1.355       .  S
C752        C753   1.410       .  A
C752        F757   1.357       .  S
C753        C754   1.407       .  A
C754        F755   1.358       .  S
C759        C760   1.406       .  A
C759        C764   1.407       .  A
C759        F766   1.358       .  S
C760        C761   1.415       .  A
C761        C762   1.405       .  A
C761        F768   1.356       .  S
C762        C763   1.409       .  A
C762        F767   1.356       .  S
C763        C764   1.414       .  A
C764        F765   1.357       .  S
C769        C770   1.413       .  A
C769        C774   1.411       .  A
C769        F776   1.357       .  S
C770        C771   1.421       .  A
C771        C772   1.400       .  A
C771        F778   1.353       .  S
C772        C773   1.396       .  A
C772        F777   1.358       .  S
C773        C774   1.407       .  A
C774        F775   1.357       .  S
C779        C780   1.416       .  A
C779        C784   1.409       .  A
C779        F786   1.357       .  S
C780        C781   1.430       .  A
C781        C782   1.391       .  A
C781        F788   1.351       .  S
C782        C783   1.387       .  A
C782        F787   1.359       .  S
C783        C784   1.405       .  A
C784        F785   1.357       .  S
C789        C790   1.408       .  A
C789        C794   1.401       .  A
C789        F796   1.358       .  S
C790        C791   1.413       .  A
C791        C792   1.408       .  A
C791        F798   1.356       .  S
C792        C793   1.407       .  A
C792        F797   1.357       .  S
C793        C794   1.411       .  A
C794        F795   1.353       .  S
C799        C800   1.398       .  A
C799        C804   1.386       .  A
C799        F806   1.355       .  S
C800        C801   1.399       .  A
C801        C802   1.392       .  A
C801        F808   1.357       .  S
C802        C803   1.409       .  A
C802        F807   1.356       .  S
C803        C804   1.407       .  A
C804        F805   1.358       .  S
C809        C810   1.399       .  A
C809        C814   1.388       .  A
C809        F816   1.350       .  S
C810        C811   1.402       .  A
C811        C812   1.389       .  A
C811        F818   1.353       .  S
C812        C813   1.403       .  A
C812        F817   1.359       .  S
C813        C814   1.404       .  A
C814        F815   1.357       .  S
C819        C820   1.405       .  A
C819        C824   1.391       .  A
C819        F826   1.357       .  S
C820        C821   1.407       .  A
C821        C822   1.386       .  A
C821        F828   1.358       .  S
C822        C823   1.398       .  A
C822        F827   1.357       .  S
C823        C824   1.403       .  A
C824        F825   1.357       .  S
C829        C830   1.404       .  A
C829        C834   1.389       .  A
C829        F836   1.359       .  S
C830        C831   1.402       .  A
C831        C832   1.393       .  A
C831        F838   1.357       .  S
C832        C833   1.405       .  A
C832        F837   1.350       .  S
C833        C834   1.405       .  A
C834        F835   1.354       .  S
C839        C840   1.401       .  A
C839        C844   1.389       .  A
C839        F846   1.358       .  S
C840        C841   1.403       .  A
C841        C842   1.386       .  A
C841        F848   1.358       .  S
C842        C843   1.400       .  A
C842        F847   1.356       .  S
C843        C844   1.403       .  A
C844        F845   1.357       .  S
C849        C850   1.401       .  A
C849        C854   1.394       .  A
C849        F856   1.358       .  S
C850        C851   1.404       .  A
C851        C852   1.385       .  A
C851        F858   1.358       .  S
C852        C853   1.401       .  A
C852        F857   1.352       .  S
C853        C854   1.413       .  A
C854        F855   1.354       .  S
C859        C860   1.402       .  A
C859        C864   1.388       .  A
C859        F866   1.357       .  S
C860        C861   1.405       .  A
C861        C862   1.392       .  A
C861        F868   1.358       .  S
C862        C863   1.405       .  A
C862        F867   1.358       .  S
C863        C864   1.403       .  A
C864        F865   1.351       .  S
C869        C870   1.401       .  A
C869        C874   1.390       .  A
C869        F876   1.354       .  S
C870        C871   1.407       .  A
C871        C872   1.393       .  A
C871        F878   1.357       .  S
C872        C873   1.405       .  A
C872        F877   1.357       .  S
C873        C874   1.406       .  A
C874        F875   1.358       .  S
