geometry optimzed in LAMMPS
_audit_creation_date              2020-11-30 
_audit_creation_method            'lammps2cif' 
_symmetry_space_group_name_H-M    'P1' 
_symmetry_Int_Tables_number       1 
_symmetry_cell_setting            triclinic 
loop_ 
_symmetry_equiv_pos_as_xyz 
  x,y,z 
_cell_length_a                    28.38616019 
_cell_length_b                    28.624102433120196 
_cell_length_c                    36.1955519364298 
_cell_angle_alpha                 90.30656564560189 
_cell_angle_beta                  91.88659949355257 
_cell_angle_gamma                 89.66062688410705 
loop_ 
_atom_site_label 
_atom_site_type_symbol 
_atom_site_fract_x 
_atom_site_fract_y 
_atom_site_fract_z 
_atom_site_charge 
O1          O  0.71835191  0.15020708  0.47131211    -0.77600
C2          C  0.79732107  0.06816042  0.38965972     0.83400
O3          O  0.71046944  0.01147877  0.02869025    -0.78700
O4          O  0.86921160  0.98699191  0.47664408    -0.80200
O5          O  0.87940337  0.15867821  0.00850542    -0.80000
O6          O  0.76267052  0.18422668  0.01678087    -0.78600
Zn7        Zn  0.74375694  0.08550836  0.46093003     1.55700
O8          O  0.90882582  0.10032363  0.47515754    -0.80000
Cd9        Cd  0.81456142  0.13288366  0.02449285     1.59700
Cd10       Cd  0.78204345  0.02459164  0.02935917     1.59600
O11         O  0.81821538  0.11724498  0.08149382    -0.80000
O12         O  0.79750377  0.07586803  0.49418892    -1.90500
Cd13       Cd  0.85197889  0.05599143  0.46418275     1.59900
O14         O  0.80160178  0.04116864  0.08312195    -0.80000
O15         O  0.83574312  0.05928634  0.40755395    -0.78600
C16         C  0.67973331  0.01926793  0.50203924     0.83900
C17         C  0.72634938  0.18437938  0.49347973     0.83600
O18         O  0.75950729  0.07825117  0.40618120    -0.77600
C19         C  0.91281119  0.14011648  0.99064351     0.84400
O20         O  0.69044742  0.04162588  0.47313589    -0.77700
C21         C  0.81264251  0.07929568  0.09929476     0.84500
C22         C  0.85111273  0.95550112  0.99601516     0.84800
O23         O  0.81608594  0.96387673  0.01604483    -0.80100
O24         O  0.72824346  0.15335608  0.22385123    -0.77600
C25         C  0.81409762  0.07931643  0.13996038     0.83400
O26         O  0.71199999  0.99887267  0.25509333    -0.78700
O27         O  0.87129485  0.97850561  0.22437235    -0.80200
O28         O  0.88772145  0.14441155  0.26878710    -0.80000
O29         O  0.76832076  0.18217179  0.27231948    -0.78600
Zn30       Zn  0.75686925  0.09261376  0.20839334     1.55700
O31         O  0.91510386  0.08756849  0.23191168    -0.80000
Cd32       Cd  0.81806674  0.12563029  0.27825900     1.59700
Cd33       Cd  0.77900175  0.01691173  0.27374058     1.59600
O34         O  0.81464627  0.10391936  0.33305615    -0.80000
O35         O  0.80290514  0.07108683  0.24423267    -1.90500
Cd36       Cd  0.85746027  0.04880729  0.21507644     1.59900
O37         O  0.78047996  0.03361849  0.33058042    -0.80000
O38         O  0.84663643  0.05728548  0.15781557    -0.78600
C39         C  0.68899434  0.01459915  0.22704184     0.83900
C40         C  0.73385048  0.18468003  0.24867338     0.83600
O41         O  0.77956832  0.09770840  0.15628122    -0.77600
C42         C  0.92092026  0.12444593  0.25139653     0.84400
O43         O  0.70411002  0.04767228  0.20740613    -0.77700
C44         C  0.79732263  0.06846047  0.34887196     0.84500
C45         C  0.85247580  0.94752458  0.24420542     0.84800
O46         O  0.81800858  0.95658362  0.26476908    -0.80100
O47         O  0.59073799  0.26350841  0.40949401    -0.77600
C48         C  0.69042147  0.22174011  0.49433599     0.83400
O49         O  0.50935965  0.21058624  0.01942288    -0.78700
O50         O  0.62477552  0.30426610  0.08510664    -0.80200
O51         O  0.60636452  0.40622884  0.48122913    -0.80000
O52         O  0.56974494  0.33836277  0.40860627    -0.78600
Zn53       Zn  0.59338169  0.24656105  0.46249113     1.55700
O54         O  0.66502076  0.37422918  0.01667224    -0.80000
Cd55       Cd  0.56262007  0.35157311  0.46556528     1.59700
Cd56       Cd  0.52942831  0.27864917  0.02876417     1.59600
O57         O  0.49213315  0.36920463  0.47477335    -0.80000
O58         O  0.58240902  0.29673595  0.49648078    -1.90500
Cd59       Cd  0.64127992  0.30686205  0.02846387     1.59900
O60         O  0.47051587  0.31869763  0.01815911    -0.80000
O61         O  0.69315016  0.25476408  0.01866570    -0.78600
C62         C  0.52028325  0.18446446  0.49411021     0.83900
C63         C  0.58101190  0.30065725  0.39197033     0.83600
O64         O  0.65508390  0.21685459  0.47237617    -0.77600
C65         C  0.64562784  0.40918925  0.49933149     0.84400
O66         O  0.54865831  0.19592576  0.46963498    -0.77700
C67         C  0.46169183  0.35292914  0.49646771     0.84500
C68         C  0.58654989  0.29600467  0.10168432     0.84800
O69         O  0.54819464  0.28638268  0.08413659    -0.80100
O70         O  0.59685080  0.25927641  0.15986425    -0.77600
C71         C  0.69609103  0.22123480  0.24980397     0.83400
O72         O  0.50858079  0.20475581  0.27107501    -0.78700
O73         O  0.62043647  0.30491419  0.33548817    -0.80200
O74         O  0.59876423  0.40125393  0.23268530    -0.80000
O75         O  0.57142085  0.33285422  0.15917618    -0.78600
Zn76       Zn  0.59805917  0.24212558  0.21427647     1.55700
O77         O  0.65737237  0.37373770  0.27001742    -0.80000
Cd78       Cd  0.56012717  0.34476185  0.21543081     1.59700
Cd79       Cd  0.52634863  0.27455556  0.27861587     1.59600
O80         O  0.48915296  0.36186101  0.22164494    -0.80000
O81         O  0.58143953  0.29137992  0.24734812    -1.90500
Cd82       Cd  0.63927643  0.30474696  0.28016486     1.59900
O83         O  0.46629068  0.31383704  0.26581132    -0.80000
O84         O  0.69577662  0.25489455  0.27331077    -0.78600
C85         C  0.52402682  0.17761957  0.24623273     0.83900
C86         C  0.58584410  0.29644850  0.14239456     0.83600
O87         O  0.66167854  0.21558782  0.22688589    -0.77600
C88         C  0.63590846  0.40695271  0.25282087     0.84400
O89         O  0.55482541  0.19019695  0.22362920    -0.77700
C90         C  0.45780970  0.34668218  0.24291690     0.84500
C91         C  0.58165011  0.29838611  0.35153978     0.84800
O92         O  0.54375803  0.28701178  0.33393691    -0.80100
O93         O  0.53724565  0.10723146  0.01410075    -0.77600
C94         C  0.45957708  0.04334467  0.07710227     0.83400
O95         O  0.61120154  0.98032513  0.48011262    -0.78700
O96         O  0.48756786  0.90221770  0.03670696    -0.80200
O97         O  0.38642435  0.03618905  0.49160632    -0.80000
O98         O  0.46969742  0.12072646  0.47890971    -0.78600
Zn99       Zn  0.53917485  0.04174375  0.03123179     1.55700
O100        O  0.40442926  0.95966362  0.99205576    -0.80000
Cd101      Cd  0.45223354  0.05030925  0.47243837     1.59700
Cd102      Cd  0.54077882  0.96429884  0.46908801     1.59600
O103        O  0.45621057  0.02356088  0.41984690    -0.80000
O104        O  0.50130487  0.00816282  0.49795807    -1.90500
Cd105      Cd  0.46017844  0.96810801  0.02673553     1.59900
O106        O  0.51917206  0.97977419  0.41563420    -0.80000
O107        O  0.43144000  0.01165542  0.06633425    -0.78600
C108        C  0.63044465  0.00567458  0.50543204     0.83900
C109        C  0.50703579  0.13575113  0.49538585     0.83600
O110        O  0.50376284  0.03489774  0.07749768    -0.77600
C111        C  0.37374032  0.99374946  0.49195462     0.84400
O112        O  0.60813407  0.02298335  0.03140393    -0.77700
C113        C  0.50028668  0.02004780  0.41648965     0.84500
C114        C  0.50288240  0.87857507  0.51003805     0.84800
O115        O  0.52232003  0.89639273  0.48209307    -0.80100
O116        O  0.59076801  0.01051768  0.29195465    -0.77600
C117        C  0.64048645  0.00081714  0.21976266     0.83400
O118        O  0.47526443  0.11146974  0.23213733    -0.78700
O119        O  0.55548372  0.98769550  0.15544208    -0.80200
O120        O  0.50427984  0.90325167  0.27847932    -0.80000
O121        O  0.52345760  0.02045085  0.31925887    -0.78600
Zn122      Zn  0.56503408  0.03680693  0.24618840     1.55700
O123        O  0.52322140  0.89269673  0.21883823    -0.80000
Cd124      Cd  0.48914897  0.97534452  0.28141506     1.59700
Cd125      Cd  0.46557872  0.04184018  0.21230217     1.59600
O126        O  0.41509044  0.98267353  0.27961277    -0.80000
O127        O  0.51240125  0.00070351  0.23586892    -1.90500
Cd128      Cd  0.55322101  0.95663649  0.20794520     1.59900
O129        O  0.40048362  0.01658813  0.22471425    -0.80000
O130        O  0.62346979  0.96141920  0.22825885    -0.78600
C131        C  0.51390743  0.12800646  0.24565152     0.83900
C132        C  0.56625959  0.03226946  0.31465225     0.83600
O133        O  0.61280046  0.03263779  0.20883487    -0.77600
C134        C  0.50893316  0.87724288  0.24972893     0.84400
O135        O  0.54958123  0.10236150  0.25207143    -0.77700
C136        C  0.38667402  0.99549766  0.25332219     0.84500
C137        C  0.52932202  0.02392417  0.15369956     0.84800
O138        O  0.48579586  0.02003088  0.16067766    -0.80100
O139        O  0.46364354  0.81678747  0.48127630    -0.77600
C140        C  0.43436805  0.70823097  0.39794847     0.83400
O141        O  0.32439320  0.74784791  0.02401263    -0.78700
O142        O  0.41360446  0.60197290  0.48543374    -0.80200
O143        O  0.55165299  0.69269524  0.02195636    -0.80000
O144        O  0.50340954  0.80010035  0.03455729    -0.78600
Zn145      Zn  0.42109504  0.76288518  0.46975629     1.55700
O146        O  0.52436192  0.64054567  0.48072290    -0.80000
Cd147      Cd  0.49103069  0.72866466  0.03696575     1.59700
Cd148      Cd  0.37949811  0.69833909  0.03342449     1.59600
O149        O  0.47639055  0.71278274  0.09158545    -0.80000
O150        O  0.43607734  0.71241709  0.50309299    -1.90500
Cd151      Cd  0.45410994  0.65800315  0.47167848     1.59900
O152        O  0.39863077  0.70046806  0.08952126    -0.80000
O153        O  0.44454203  0.67049289  0.41501895    -0.78600
C154        C  0.32228093  0.78047590  0.50117171     0.83900
C155        C  0.49063023  0.82916709  0.50829506     0.83600
O156        O  0.42545900  0.74591418  0.41531195    -0.77600
C157        C  0.55785197  0.65849218  0.50020270     0.84400
O158        O  0.35595451  0.78718927  0.47935881    -0.77700
C159        C  0.43780775  0.70477435  0.10747767     0.84500
C160        C  0.37743989  0.59649016  0.50481578     0.84800
O161        O  0.35833383  0.62979882  0.02233841    -0.80100
O162        O  0.46732784  0.81399063  0.22401247    -0.77600
C163        C  0.43782015  0.70406686  0.14801814     0.83400
O164        O  0.32684148  0.74918812  0.27348329    -0.78700
O165        O  0.40997982  0.60071509  0.23337972    -0.80200
O166        O  0.54908177  0.69417716  0.27516759    -0.80000
O167        O  0.50196151  0.80361824  0.27943096    -0.78600
Zn168      Zn  0.42237334  0.76061181  0.21760456     1.55700
O169        O  0.52254536  0.63733138  0.23723585    -0.80000
Cd170      Cd  0.48851264  0.73262534  0.28657105     1.59700
Cd171      Cd  0.37850804  0.69727545  0.28204480     1.59600
O172        O  0.47119254  0.72286575  0.34156622    -0.80000
O173        O  0.43567092  0.71150621  0.25242457    -1.90500
Cd174      Cd  0.45441499  0.65573313  0.22286793     1.59900
O175        O  0.39684630  0.69725199  0.33881467    -0.80000
O176        O  0.45237956  0.66816307  0.16579131    -0.78600
C177        C  0.32666448  0.78254741  0.25020989     0.87500
C178        C  0.49284997  0.82873828  0.25108393     0.83600
O179        O  0.42355092  0.74049595  0.16451214    -0.77600
C180        C  0.55538554  0.65698325  0.25626491     0.84400
O181        O  0.35981282  0.78782566  0.22783038    -0.77700
C182        C  0.43415312  0.70904238  0.35722558     0.84500
C183        C  0.37073068  0.59732454  0.24929249     0.84800
O184        O  0.35225161  0.63135326  0.26680871    -0.80100
O185        O  0.23914299  0.91102360  0.41164051    -0.77600
C186        C  0.32532876  0.98109972  0.49401414     0.83400
O187        O  0.25247333  0.81854171  0.02343373    -0.78700
O188        O  0.22367461  0.96742053  0.08695182    -0.80200
O189        O  0.14228972  0.02061957  0.47700120    -0.80000
O190        O  0.16736769  0.94227489  0.41003130    -0.78600
Zn191      Zn  0.25820243  0.90927417  0.46477778     1.55700
O192        O  0.19692081  0.04461665  0.01830606    -0.80000
Cd193      Cd  0.15655800  0.95004075  0.46775294     1.59700
Cd194      Cd  0.20169241  0.87303057  0.03072940     1.59600
O195        O  0.10045009  0.91145475  0.48565936    -0.80000
O196        O  0.21164432  0.92821075  0.49892163    -1.90500
Cd197      Cd  0.23270928  0.98304501  0.03101374     1.59900
O198        O  0.13223249  0.85380149  0.02119483    -0.80000
O199        O  0.30193923  0.99654370  0.02061536    -0.78600
C200        C  0.28377803  0.81589446  0.50011066     0.83900
C201        C  0.20330993  0.92615315  0.39361271     0.83600
O202        O  0.31079264  0.95119978  0.47058261    -0.77600
C203        C  0.16152947  0.05218604  0.49729288     0.84400
O204        O  0.28731110  0.84788493  0.47627043    -0.77700
C205        C  0.09626850  0.87494480  0.50543377     0.84500
C206        C  0.21309989  0.92982719  0.10361281     0.84800
O207        O  0.20511161  0.89166179  0.08631438    -0.80100
O208        O  0.24993884  0.91822699  0.16199666    -0.77600
C209        C  0.33737992  0.98061342  0.25340938     0.83400
O210        O  0.25665036  0.81893718  0.27260908    -0.78700
O211        O  0.21956690  0.96352283  0.33731933    -0.80200
O212        O  0.14759948  0.01535497  0.22900197    -0.80000
O213        O  0.17479661  0.94073753  0.16083096    -0.78600
Zn214      Zn  0.26837077  0.91490510  0.21593629     1.55700
O215        O  0.20652406  0.03945223  0.26709860    -0.80000
Cd216      Cd  0.16180764  0.94550727  0.21779765     1.59700
Cd217      Cd  0.20389512  0.86981661  0.27911854     1.59600
O218        O  0.10510030  0.90261087  0.23094524    -0.80000
O219        O  0.21793309  0.92654258  0.24880628    -1.90500
Cd220      Cd  0.23908415  0.97771752  0.28330938     1.59900
O221        O  0.13783483  0.84383421  0.26367753    -0.80000
O222        O  0.31221988  0.98685516  0.28159585    -0.78600
C223        C  0.29007338  0.81906763  0.24981548     0.83900
C224        C  0.21234179  0.92967967  0.14424468     0.83600
O225        O  0.32173098  0.95927936  0.22471961    -0.77600
C226        C  0.16955484  0.04736260  0.24713624     0.84400
O227        O  0.29539108  0.85238436  0.22722408    -0.77700
C228        C  0.10238900  0.86320928  0.24731684     0.84500
C229        C  0.20614524  0.92626533  0.35301689     0.84800
O230        O  0.20015436  0.88801330  0.33518764    -0.80100
O231        O  0.96220968  0.69081431  0.00487121    -0.77600
C232        C  0.93661258  0.78808338  0.10557479     0.83400
O233        O  0.82110415  0.75803466  0.47853729    -0.78700
O234        O  0.90649156  0.90302013  0.02059511    -0.80200
O235        O  0.04232968  0.82185595  0.48247966    -0.80000
O236        O  0.99790757  0.72188137  0.45587092    -0.78600
Zn237      Zn  0.92537377  0.74160868  0.02956376     1.55700
O238        O  0.01970843  0.86825421  0.02783362    -0.80000
Cd239      Cd  0.98295734  0.79039051  0.46486034     1.59700
Cd240      Cd  0.87386749  0.80772902  0.46762165     1.59600
O241        O  0.96714889  0.81725040  0.41364338    -0.80000
O242        O  0.93195179  0.79654872  0.00073019    -1.90500
Cd243      Cd  0.94949166  0.84787359  0.03542279     1.59900
O244        O  0.89114389  0.79924544  0.41149457    -0.80000
O245        O  0.93890391  0.82848355  0.09080524    -0.78600
C246        C  0.82369280  0.72449522  0.00227284     0.83900
C247        C  0.98554381  0.68645745  0.97542520     0.83600
O248        O  0.93628957  0.75089733  0.08580891    -0.77600
C249        C  0.05014230  0.85374705  0.50610108     0.84400
O250        O  0.86014222  0.71821205  0.02299484    -0.77700
C251        C  0.92948959  0.80809916  0.39537729     0.84500
C252        C  0.87191245  0.90904267  0.99769062     0.84800
O253        O  0.85369291  0.87699341  0.47707298    -0.80100
O254        O  0.96783179  0.68092610  0.28645627    -0.77600
C255        C  0.93226492  0.80339111  0.35508216     0.83400
O256        O  0.82581876  0.74629911  0.23032988    -0.78700
O257        O  0.91321300  0.89737692  0.26318090    -0.80200
O258        O  0.04998127  0.80074765  0.23271843    -0.80000
O259        O  0.99538567  0.69135256  0.23010277    -0.78600
Zn260      Zn  0.92364664  0.73764660  0.28888725     1.55700
O261        O  0.02383318  0.86107400  0.26598378    -0.80000
Cd262      Cd  0.98823930  0.76275613  0.22094802     1.59700
Cd263      Cd  0.87774780  0.79743443  0.21920691     1.59600
O264        O  0.97193238  0.77158379  0.16458672    -0.80000
O265        O  0.93563365  0.78510361  0.25190666    -1.90500
Cd266      Cd  0.95587357  0.84284798  0.27900331     1.59900
O267        O  0.89654546  0.79464502  0.16274661    -0.80000
O268        O  0.94945791  0.83636685  0.33622718    -0.78600
C269        C  0.82688968  0.71391975  0.25473378     0.83900
C270        C  0.98656748  0.66499327  0.25738534     0.83600
O271        O  0.92018509  0.76465755  0.34032090    -0.77600
C272        C  0.05631303  0.84029342  0.24866212     0.84400
O273        O  0.86134665  0.70938704  0.27770272    -0.77700
C274        C  0.93477714  0.78440076  0.14648919     0.84500
C275        C  0.87392711  0.90096007  0.24556630     0.84800
O276        O  0.85364582  0.86613443  0.22948446    -0.80100
O277        O  0.74698351  0.59460222  0.09398118    -0.77600
C278        C  0.84458807  0.52372454  0.01374537     0.83400
O279        O  0.75488212  0.68407062  0.47854506    -0.78700
O280        O  0.73930343  0.53545118  0.41826451    -0.80200
O281        O  0.64784069  0.48729018  0.01859899    -0.80000
O282        O  0.67619749  0.56146876  0.08845860    -0.78600
Zn283      Zn  0.77185518  0.59288349  0.04174886     1.55700
O284        O  0.70700760  0.46087816  0.48509843    -0.80000
Cd285      Cd  0.66590819  0.55552328  0.03157796     1.59700
Cd286      Cd  0.70575796  0.62959651  0.47106667     1.59600
O287        O  0.60948806  0.59802065  0.01796314    -0.80000
O288        O  0.72291986  0.57526610  0.00501924    -1.90500
Cd289      Cd  0.74500830  0.52116295  0.47508165     1.59900
O290        O  0.63752676  0.65394847  0.48177734    -0.80000
O291        O  0.81497485  0.50954491  0.48878211    -0.78600
C292        C  0.78757948  0.68769819  0.00372794     0.83900
C293        C  0.70943353  0.57954552  0.10813585     0.83600
O294        O  0.83225117  0.55195849  0.03915049    -0.77600
C295        C  0.66830727  0.45485269  0.50125734     0.84400
O296        O  0.79423355  0.65665049  0.02850754    -0.77700
C297        C  0.60419550  0.63587038  0.49973739     0.84500
C298        C  0.72286243  0.57024699  0.39989780     0.84800
O299        O  0.70761015  0.60714289  0.41573076    -0.80100
O300        O  0.75827437  0.57248377  0.34107836    -0.77600
C301        C  0.82285401  0.50499206  0.24107127     0.83400
O302        O  0.75286062  0.68061405  0.23526405    -0.78700
O303        O  0.70712369  0.53893820  0.16381265    -0.80200
O304        O  0.64385991  0.48313779  0.27786924    -0.80000
O305        O  0.68080773  0.56151553  0.34260544    -0.78600
Zn306      Zn  0.77054574  0.57802747  0.28553757     1.55700
O307        O  0.68455283  0.46259987  0.22860667    -0.80000
Cd308      Cd  0.66267627  0.55297464  0.28668523     1.59700
Cd309      Cd  0.70164892  0.62970520  0.22463876     1.59600
O310        O  0.60661352  0.59665103  0.27447434    -0.80000
O311        O  0.71471854  0.57124603  0.25420336    -1.90500
Cd312      Cd  0.72193342  0.52002043  0.21736616     1.59900
O313        O  0.63441780  0.65293640  0.23805730    -0.80000
O314        O  0.78947191  0.49801880  0.21772942    -0.78600
C315        C  0.79029721  0.67742492  0.25552977     0.83900
C316        C  0.72066974  0.56769457  0.35907961     0.83600
O317        O  0.81890516  0.53095322  0.26955197    -0.77600
C318        C  0.65614208  0.45326440  0.25365948     0.84400
O319        O  0.79905246  0.64145114  0.27544618    -0.77700
C320        C  0.60165185  0.63476696  0.25664104     0.84500
C321        C  0.70648941  0.57871260  0.14853604     0.84800
O322        O  0.70577502  0.61663047  0.16731243    -0.80100
O323        O  0.09883879  0.23828927  0.08759258    -0.77600
C324        C  0.19143707  0.28594083  0.50057359     0.83400
O325        O  0.01674209  0.31190148  0.47853821    -0.78700
O326        O  0.11643531  0.20216083  0.41157302    -0.80200
O327        O  0.10117252  0.10441859  0.01215516    -0.80000
O328        O  0.06449630  0.16870352  0.08186614    -0.78600
Zn329      Zn  0.09537103  0.26558989  0.03559186     1.55700
O330        O  0.16079534  0.13303289  0.48106478    -0.80000
Cd331      Cd  0.05962566  0.16070279  0.02479293     1.59700
Cd332      Cd  0.02677394  0.24079398  0.46591446     1.59600
O333        O  0.99186457  0.14305257  0.00992488    -0.80000
O334        O  0.08023516  0.21767839  0.49875344    -1.90500
Cd335      Cd  0.13672264  0.20135532  0.46823087     1.59900
O336        O  0.96531161  0.20121981  0.47490949    -0.80000
O337        O  0.18999838  0.25234295  0.47706438    -0.78600
C338        C  0.02837649  0.33891085  0.50569784     0.83900
C339        C  0.08360920  0.20072487  0.10167447     0.83600
O340        O  0.15831527  0.29201315  0.02376711    -0.77600
C341        C  0.14055458  0.09915143  0.49707850     0.84400
O342        O  0.05218243  0.32402392  0.03270413    -0.77700
C343        C  0.95913186  0.16282622  0.49210229     0.84500
C344        C  0.08024719  0.21743589  0.39323703     0.84800
O345        O  0.04443053  0.23441989  0.40943383    -0.80100
O346        O  0.08061485  0.25143519  0.33247776    -0.77600
C347        C  0.19067328  0.28290425  0.24798665     0.83400
O348        O  0.01312796  0.27868226  0.20139664    -0.78700
O349        O  0.12415711  0.20301950  0.16025163    -0.80200
O350        O  0.11374853  0.09990278  0.26823659    -0.80000
O351        O  0.07934939  0.17381612  0.33690378    -0.78600
Zn352      Zn  0.09100690  0.26193519  0.27603142     1.55700
O353        O  0.16554283  0.12655216  0.22764411    -0.80000
Cd354      Cd  0.06998590  0.15439587  0.28112695     1.59700
Cd355      Cd  0.03133838  0.21068633  0.20995256     1.59600
O356        O  0.00019115  0.13253750  0.27298212    -0.80000
O357        O  0.08492341  0.20601978  0.24693970    -1.90500
Cd358      Cd  0.14236896  0.19525472  0.21670268     1.59900
O359        O  0.97293435  0.17710017  0.22651195    -0.80000
O360        O  0.19345398  0.24729864  0.22674623    -0.78600
C361        C  0.02397385  0.31373842  0.22128565     0.83900
C362        C  0.07977865  0.21423180  0.35205687     0.83600
O363        O  0.15549294  0.28921165  0.26858289    -0.77600
C364        C  0.14887004  0.09407633  0.24762422     0.84400
O365        O  0.04906994  0.31054898  0.25118168    -0.77700
C366        C  0.96701195  0.14630006  0.25092730     0.84500
C367        C  0.08557626  0.19576654  0.14207004     0.84800
O368        O  0.04756289  0.18696042  0.15815067    -0.80100
O369        O  0.21881692  0.36031123  0.01838592    -0.77600
C370        C  0.29100107  0.43873548  0.10074210     0.83400
O371        O  0.22174779  0.50055979  0.45112543    -0.78700
O372        O  0.36848517  0.51948254  0.02593407    -0.80200
O373        O  0.38137668  0.35548151  0.47719921    -0.80000
O374        O  0.26165662  0.32127856  0.47723278    -0.78600
Zn375      Zn  0.24285384  0.42598631  0.02397842     1.55700
O376        O  0.40847136  0.40848034  0.01800169    -0.80000
Cd377      Cd  0.31108889  0.37435854  0.46629714     1.59700
Cd378      Cd  0.29167737  0.48405432  0.45987915     1.59600
O379        O  0.30478328  0.38948120  0.40959625    -0.80000
O380        O  0.29888910  0.43222791  0.49646712    -1.90500
Cd381      Cd  0.35075594  0.44907599  0.03145484     1.59900
O382        O  0.31651232  0.46632710  0.40874933    -0.80000
O383        O  0.33154333  0.43818090  0.08636025    -0.78600
C384        C  0.18700179  0.48770163  0.46970357     0.83900
C385        C  0.22733187  0.32328245  0.49924913     0.83600
O386        O  0.25313079  0.43948964  0.08044183    -0.77600
C387        C  0.41464313  0.37367996  0.49710336     0.84400
O388        O  0.19189775  0.46343249  0.99734499    -0.77700
C389        C  0.31196631  0.42732531  0.39215410     0.84500
C390        C  0.35555829  0.55066696  0.50354480     0.84800
O391        O  0.32595325  0.54282698  0.47726577    -0.80100
O392        O  0.22087467  0.35336894  0.27113583    -0.77600
C393        C  0.31005960  0.42739424  0.35163060     0.83400
O394        O  0.19802622  0.49474929  0.22919659    -0.78700
O395        O  0.36936002  0.51802111  0.26481226    -0.80200
O396        O  0.37669221  0.35307308  0.22405413    -0.80000
O397        O  0.25749989  0.32284694  0.22308240    -0.78600
Zn398      Zn  0.24690073  0.41578121  0.28358652     1.55700
O399        O  0.40774666  0.40663306  0.26287482    -0.80000
Cd400      Cd  0.30699149  0.37698655  0.21389733     1.59700
Cd401      Cd  0.26910866  0.48611233  0.21743878     1.59600
O402        O  0.30205275  0.39916048  0.15821791    -0.80000
O403        O  0.29370823  0.43190446  0.24757142    -1.90500
Cd404      Cd  0.35214256  0.44986047  0.27651759     1.59900
O405        O  0.27418600  0.47236906  0.15991462    -0.80000
O406        O  0.34348524  0.44507422  0.33369025    -0.78600
C407        C  0.17276603  0.48263804  0.25615470     0.83900
C408        C  0.22597651  0.32079402  0.24759945     0.83600
O409        O  0.27269007  0.41252394  0.33549468    -0.77600
C410        C  0.41150110  0.36996939  0.24302550     0.84400
O411        O  0.18947164  0.45840963  0.28287487    -0.77700
C412        C  0.28850065  0.43668762  0.14181774     0.84500
C413        C  0.34767519  0.55162823  0.24859982     0.84800
O414        O  0.30793246  0.54641694  0.23140233    -0.80100
O415        O  0.01785740  0.47424588  0.39480348    -0.77600
C416        C  0.13917602  0.49948924  0.45722476     0.83400
O417        O  0.01710691  0.41997301  0.02652112    -0.78700
O418        O  0.08138849  0.58705790  0.01368416    -0.80200
O419        O  0.96308887  0.61092944  0.46760290    -0.80000
O420        O  0.96827663  0.53274183  0.39609664    -0.78600
Zn421      Zn  0.04057051  0.46350427  0.44686656     1.55700
O422        O  0.03299896  0.62807465  0.94717024    -0.80000
Cd423      Cd  0.96081208  0.54431984  0.45114823     1.59700
Cd424      Cd  0.00224024  0.49534174  0.02410867     1.59600
O425        O  0.90325159  0.51849942  0.47333635    -0.80000
O426        O  0.01547072  0.51392304  0.47390226    -1.90500
Cd427      Cd  0.06214853  0.56482783  0.96419190     1.59900
O428        O  0.92787850  0.51144197  0.03186262    -0.80000
O429        O  0.12753575  0.54180776  0.94804758    -0.78600
C430        C  0.02023760  0.38998454  0.50064317     0.83900
C431        C  0.97605090  0.48926991  0.39817767     0.83600
O432        O  0.10927184  0.46673083  0.45701655    -0.77600
C433        C  0.99463447  0.63949495  0.96231298     0.84400
O434        O  0.02160428  0.40325566  0.46730141    -0.77700
C435        C  0.89482344  0.51508383  0.00673367     0.84500
C436        C  0.07449216  0.57587035  0.04655178     0.84800
O437        O  0.04782585  0.54166470  0.05580775    -0.80100
O438        O  0.04413759  0.39010813  0.20907579    -0.77600
C439        C  0.01440258  0.51520338  0.14771090     0.83400
O440        O  0.09383733  0.49765314  0.27803494    -0.78700
O441        O  0.97362699  0.59953062  0.22050392    -0.80200
O442        O  0.88804342  0.45286381  0.23936098    -0.80000
O443        O  0.96894041  0.37243851  0.20164698    -0.78600
Zn444      Zn  0.04492123  0.45755752  0.19798861     1.55700
O445        O  0.89102386  0.52367870  0.21353094    -0.80000
Cd446      Cd  0.95712469  0.43229740  0.23107151     1.59700
Cd447      Cd  0.01901649  0.51196321  0.27468180     1.59600
O448        O  0.98721679  0.40993928  0.27820506    -0.80000
O449        O  0.99731378  0.48784207  0.22500942    -1.90500
Cd450      Cd  0.95767260  0.53484755  0.19956340     1.59900
O451        O  0.97280577  0.47386129  0.30909119    -0.80000
O452        O  0.97055111  0.52332505  0.14494378    -0.78600
C453        C  0.12138677  0.48755422  0.25146021     0.83900
C454        C  0.01140382  0.36029057  0.20859306     0.83600
O455        O  0.02907550  0.47342965  0.14492243    -0.77600
C456        C  0.86955668  0.49215576  0.23061718     0.84400
O457        O  0.10587355  0.47631627  0.21944525    -0.77700
C458        C  0.96545635  0.43033392  0.30297471     0.84500
C459        C  0.99006907  0.61406510  0.25157333     0.84800
O460        O  0.00602839  0.58601249  0.27669789    -0.80100
C461        C  0.90820709  0.39387935  0.41743767     0.30700
C462        C  0.90953157  0.35149044  0.39788811    -0.35700
C463        C  0.89841992  0.35812980  0.36012779     0.16600
C464        C  0.86697820  0.39433822  0.34961090     0.22500
C465        C  0.84222970  0.41697854  0.37729473    -0.33800
C466        C  0.87195932  0.42593985  0.40816699     0.16600
O467        O  0.94914397  0.41512231  0.42200529    -0.25800
C468        C  0.94050549  0.45952078  0.41508651     0.06300
C469        C  0.89311715  0.46862409  0.40975054    -0.30700
O470        O  0.88558242  0.42188443  0.32488134    -0.22500
C471        C  0.92762718  0.40403542  0.31950984    -0.02500
C472        C  0.93530967  0.36194022  0.33691466    -0.17000
H473        H  0.93795853  0.32774154  0.40495167     0.21000
H474        H  0.81790995  0.44481171  0.36852463     0.19400
H475        H  0.87881435  0.50027179  0.39682391     0.19300
H476        H  0.96898036  0.34563670  0.34061552     0.15200
C477        C  0.07090860  0.61825317  0.17246337     0.30700
C478        C  0.07356841  0.65950809  0.15206549    -0.35700
C479        C  0.10059146  0.65341240  0.12058489     0.16600
C480        C  0.13822404  0.62102251  0.12135903     0.22500
C481        C  0.15068153  0.59969053  0.15483512    -0.33800
C482        C  0.11055012  0.58871493  0.17433429     0.16600
O483        O  0.03150728  0.59431877  0.16831005    -0.25800
C484        C  0.04474033  0.55021474  0.16616306     0.06300
C485        C  0.09262945  0.54486971  0.17034560    -0.30700
O486        O  0.13634480  0.59305240  0.09229346    -0.22500
C487        C  0.09791488  0.60594444  0.07378449    -0.02500
C488        C  0.07715962  0.64551138  0.08759617    -0.17000
H489        H  0.04175632  0.68057979  0.14928328     0.21000
H490        H  0.17873395  0.57376403  0.15447319     0.19400
H491        H  0.11220097  0.51479464  0.16060867     0.19300
H492        H  0.04189045  0.65761019  0.08000979     0.15200
C493        C  0.62072404  0.11772280  0.36752944     0.30700
C494        C  0.63196717  0.11191460  0.40514197    -0.35700
C495        C  0.59122062  0.10538680  0.42532145     0.16600
C496        C  0.54974026  0.12947176  0.41506894     0.22500
C497        C  0.55074383  0.16057362  0.38555049    -0.33800
C498        C  0.57926602  0.14302021  0.35782925     0.16600
O499        O  0.62457259  0.07928233  0.34758212    -0.25800
C500        C  0.58445917  0.07671618  0.32859491     0.06300
C501        C  0.55728273  0.11629295  0.33123941    -0.30700
O502        O  0.51222890  0.10292762  0.41682326    -0.22500
C503        C  0.52860243  0.06127228  0.42583133    -0.02500
C504        C  0.57663522  0.06092725  0.43227733    -0.17000
H505        H  0.66204467  0.09026180  0.41211824     0.21000
H506        H  0.51776575  0.17699288  0.37704587     0.19400
H507        H  0.52024078  0.11852768  0.32305002     0.19300
H508        H  0.59858458  0.03040490  0.42980501     0.15200
C509        C  0.48361115  0.15355759  0.08749872     0.30700
C510        C  0.53282291  0.15867381  0.09283889    -0.35700
C511        C  0.55026474  0.13821454  0.12562503     0.16600
C512        C  0.52256855  0.13991882  0.15663198     0.22500
C513        C  0.47706182  0.15928429  0.15343955    -0.33800
C514        C  0.45600529  0.15090040  0.11864494     0.16600
O515        O  0.47095602  0.12189787  0.06297463    -0.25800
C516        C  0.44401083  0.09243960  0.08007514     0.06300
C517        C  0.42944733  0.11098590  0.11310634    -0.30700
O518        O  0.52569002  0.10099791  0.17522786    -0.22500
C519        C  0.54918858  0.07144300  0.15513266    -0.02500
C520        C  0.56899125  0.09342777  0.12545709    -0.17000
H521        H  0.55472376  0.15585740  0.06918767     0.21000
H522        H  0.45455437  0.15672197  0.17678694     0.19400
H523        H  0.41546476  0.09038248  0.13517104     0.19300
H524        H  0.58180790  0.07566358  0.10129482     0.15200
O525        O  0.71944433  0.15012817  0.97172667    -0.77600
C526        C  0.79764767  0.06836918  0.88966285     0.83400
O527        O  0.70926429  0.01267693  0.52867191    -0.78700
O528        O  0.87014171  0.98659833  0.97629789    -0.80200
O529        O  0.87932101  0.15886531  0.50880429    -0.80000
O530        O  0.76192391  0.18480257  0.51593470    -0.78600
Zn531      Zn  0.74436891  0.08523929  0.96117643     1.55700
O532        O  0.90893532  0.10035923  0.97462660    -0.80000
Cd533      Cd  0.81383524  0.13358946  0.52420122     1.59700
Cd534      Cd  0.78100769  0.02529519  0.52934924     1.59600
O535        O  0.81655743  0.11834481  0.58127211    -0.80000
O536        O  0.79818755  0.07533714  0.99426013    -1.90500
Cd537      Cd  0.85247046  0.05562130  0.96396837     1.59900
O538        O  0.80056382  0.04213279  0.58303830    -0.80000
O539        O  0.83609456  0.05923298  0.90741409    -0.78600
C540        C  0.68074991  0.01824198  0.00222448     0.83900
C541        C  0.72738828  0.18416843  0.99404930     0.83600
O542        O  0.75992838  0.07837210  0.90633375    -0.77600
C543        C  0.91287534  0.14003624  0.49123700     0.84400
O544        O  0.69111904  0.04114865  0.97348740    -0.77700
C545        C  0.81119634  0.08041290  0.59914284     0.84500
C546        C  0.85001907  0.95591855  0.49626771     0.84800
O547        O  0.81490634  0.96434159  0.51621312    -0.80100
O548        O  0.72795331  0.15391196  0.72441151    -0.77600
C549        C  0.81287016  0.08046670  0.63980311     0.83400
O550        O  0.71270498  0.99885631  0.75493706    -0.78700
O551        O  0.87131234  0.97928495  0.72397418    -0.80200
O552        O  0.88773897  0.14495366  0.76877955    -0.80000
O553        O  0.76834341  0.18287424  0.77267409    -0.78600
Zn554      Zn  0.75657718  0.09349584  0.70855986     1.55700
O555        O  0.91436890  0.08881213  0.73087870    -0.80000
Cd556      Cd  0.81810028  0.12632140  0.77836771     1.59700
Cd557      Cd  0.77931084  0.01766493  0.77372778     1.59600
O558        O  0.81491359  0.10442303  0.83314358    -0.80000
O559        O  0.80280370  0.07193923  0.74419638    -1.90500
Cd560      Cd  0.85688100  0.04959176  0.71461141     1.59900
O561        O  0.78053096  0.03424506  0.83052258    -0.80000
O562        O  0.84514765  0.05784847  0.65746142    -0.78600
C563        C  0.68964219  0.01444967  0.72688226     0.83900
C564        C  0.73371840  0.18527913  0.74916633     0.83600
O565        O  0.77882905  0.09944064  0.65633970    -0.77600
C566        C  0.92057707  0.12525746  0.75080424     0.84400
O567        O  0.70432673  0.04796550  0.70748438    -0.77700
C568        C  0.79750428  0.06894972  0.84888437     0.84500
C569        C  0.85283049  0.94841195  0.74412695     0.84800
O570        O  0.81863093  0.95760032  0.76490667    -0.80100
O571        O  0.59003675  0.26188246  0.90951446    -0.77600
C572        C  0.69160381  0.22170150  0.99470418     0.83400
O573        O  0.50967228  0.21179354  0.52034522    -0.78700
O574        O  0.62554029  0.30489545  0.58513823    -0.80200
O575        O  0.60677845  0.40554236  0.98099816    -0.80000
O576        O  0.56976551  0.33697661  0.90867127    -0.78600
Zn577      Zn  0.59462887  0.24557794  0.96262318     1.55700
O578        O  0.66509009  0.37457801  0.51623582    -0.80000
Cd579      Cd  0.56282238  0.35073062  0.96556699     1.59700
Cd580      Cd  0.52977152  0.27988794  0.52924883     1.59600
O581        O  0.49224447  0.36867627  0.97477897    -0.80000
O582        O  0.58259449  0.29579801  0.99646453    -1.90500
Cd583      Cd  0.64130611  0.30744355  0.52822283     1.59900
O584        O  0.47088676  0.31964742  0.51862522    -0.80000
O585        O  0.69282836  0.25540551  0.51772985    -0.78600
C586        C  0.52231241  0.18250984  0.99439514     0.83900
C587        C  0.58033644  0.29906963  0.89201333     0.83600
O588        O  0.65698226  0.21729685  0.97200907    -0.77600
C589        C  0.64580098  0.40873203  0.99943377     0.84400
O590        O  0.55217388  0.19352972  0.97091405    -0.77700
C591        C  0.46155121  0.35230463  0.99623478     0.84500
C592        C  0.58725849  0.29735292  0.60187839     0.84800
O593        O  0.54870207  0.28829941  0.58445125    -0.80100
O594        O  0.59756689  0.26023108  0.65989807    -0.77600
C595        C  0.69600964  0.22180165  0.75026568     0.83400
O596        O  0.50850695  0.20335394  0.77004867    -0.78700
O597        O  0.61939273  0.30488591  0.83558053    -0.80200
O598        O  0.59870600  0.40152778  0.73342435    -0.80000
O599        O  0.57186670  0.33373762  0.65957217    -0.78600
Zn600      Zn  0.59832864  0.24230841  0.71418949     1.55700
O601        O  0.65737957  0.37370907  0.77046928    -0.80000
Cd602      Cd  0.56021805  0.34502824  0.71592847     1.59700
Cd603      Cd  0.52607049  0.27320826  0.77836238     1.59600
O604        O  0.48936625  0.36207340  0.72249317    -0.80000
O605        O  0.58122234  0.29116424  0.74747283    -1.90500
Cd606      Cd  0.63877102  0.30481854  0.78049508     1.59900
O607        O  0.46616950  0.31296743  0.76586137    -0.80000
O608        O  0.69530715  0.25508812  0.77406552    -0.78600
C609        C  0.52480809  0.17634171  0.74547347     0.83900
C610        C  0.58661548  0.29757159  0.64261859     0.83600
O611        O  0.66196027  0.21640923  0.72699300    -0.77600
C612        C  0.63598877  0.40706046  0.75340851     0.84400
O613        O  0.55588025  0.18936721  0.72323517    -0.77700
C614        C  0.45792834  0.34645594  0.74348833     0.84500
C615        C  0.58088389  0.29689067  0.85158696     0.84800
O616        O  0.54336164  0.28444777  0.83393126    -0.80100
O617        O  0.53517095  0.10905577  0.51342330    -0.77600
C618        C  0.45882702  0.04503066  0.57697156     0.83400
O619        O  0.61236960  0.97908062  0.98021884    -0.78700
O620        O  0.48660603  0.90351643  0.53616323    -0.80200
O621        O  0.38827375  0.03541885  0.99238966    -0.80000
O622        O  0.47190107  0.11883124  0.97937429    -0.78600
Zn623      Zn  0.53776438  0.04358620  0.53066042     1.55700
O624        O  0.40347944  0.96063226  0.49153142    -0.80000
Cd625      Cd  0.45397234  0.04872504  0.97289948     1.59700
Cd626      Cd  0.54199187  0.96258228  0.96948522     1.59600
O627        O  0.45732331  0.02188059  0.92025453    -0.80000
O628        O  0.50271665  0.00649075  0.99843083    -1.90500
Cd629      Cd  0.45902089  0.96961985  0.52634282     1.59900
O630        O  0.51947491  0.97699267  0.91605838    -0.80000
O631        O  0.43035805  0.01380589  0.56577955    -0.78600
C632        C  0.63162822  0.00412529  0.00572598     0.83900
C633        C  0.50920486  0.13383790  0.99587929     0.83600
O634        O  0.50289852  0.03616697  0.57713971    -0.77600
C635        C  0.37508462  0.99314919  0.99257381     0.84400
O636        O  0.60684677  0.02531966  0.53068212    -0.77700
C637        C  0.50131313  0.01757183  0.91675168     0.84500
C638        C  0.50391815  0.87730208  0.01063389     0.84800
O639        O  0.52364217  0.89498257  0.98279498    -0.80100
O640        O  0.59191624  0.00918910  0.79110135    -0.77600
C641        C  0.64149570  0.99981727  0.71925828     0.83400
O642        O  0.47649215  0.10976708  0.73122511    -0.78700
O643        O  0.55693575  0.98604506  0.65489005    -0.80200
O644        O  0.50589696  0.90233261  0.77832843    -0.80000
O645        O  0.52459256  0.01981353  0.81825764    -0.78600
Zn646      Zn  0.56603413  0.03535363  0.74536249     1.55700
O647        O  0.52469186  0.89128949  0.71868818    -0.80000
Cd648      Cd  0.49026547  0.97422437  0.78083636     1.59700
Cd649      Cd  0.46676561  0.04006698  0.71148248     1.59600
O650        O  0.41609905  0.98116898  0.77898710    -0.80000
O651        O  0.51351346  0.99908094  0.73514882    -1.90500
Cd652      Cd  0.55472329  0.95509081  0.70749267     1.59900
O653        O  0.40153277  0.01464094  0.72391943    -0.80000
O654        O  0.62488372  0.96033417  0.72799740    -0.78600
C655        C  0.51503708  0.12655022  0.74475790     0.83900
C656        C  0.56748630  0.03129400  0.81364467     0.83600
O657        O  0.61351418  0.03109490  0.70785840    -0.77600
C658        C  0.51027974  0.87617329  0.74964608     0.84400
O659        O  0.55078253  0.10103907  0.75129530    -0.77700
C660        C  0.38765925  0.99377971  0.75263282     0.84500
C661        C  0.53084374  0.02233089  0.65282411     0.84800
O662        O  0.48728171  0.01865471  0.65980053    -0.80100
O663        O  0.46453723  0.81610317  0.98146864    -0.77600
C664        C  0.43465775  0.70823845  0.89790786     0.83400
O665        O  0.32385445  0.74709897  0.52451962    -0.78700
O666        O  0.41373194  0.60197067  0.98511449    -0.80200
O667        O  0.55165860  0.69323773  0.52179845    -0.80000
O668        O  0.50328392  0.80117939  0.53409003    -0.78600
Zn669      Zn  0.42167482  0.76277216  0.96959204     1.55700
O670        O  0.52457496  0.64056886  0.98036579    -0.80000
Cd671      Cd  0.49108662  0.72946473  0.53694306     1.59700
Cd672      Cd  0.37954334  0.69827926  0.53379545     1.59600
O673        O  0.47640680  0.71378343  0.59174808    -0.80000
O674        O  0.43614351  0.71218829  0.00290361    -1.90500
Cd675      Cd  0.45423561  0.65792961  0.97147340     1.59900
O676        O  0.39873454  0.70087016  0.58976768    -0.80000
O677        O  0.44427616  0.67037133  0.91494179    -0.78600
C678        C  0.32291541  0.78108951  0.00052149     0.83900
C679        C  0.49129422  0.82815469  0.00870870     0.83600
O680        O  0.42639246  0.74606614  0.91524838    -0.77600
C681        C  0.55796697  0.65825064  0.00011241     0.84400
O682        O  0.35658157  0.78754541  0.97866153    -0.77700
C683        C  0.43787356  0.70552669  0.60768636     0.84500
C684        C  0.37723912  0.59662696  0.00413635     0.84800
O685        O  0.35873296  0.62958718  0.52320196    -0.80100
O686        O  0.46681857  0.81381430  0.72461281    -0.77600
C687        C  0.43779512  0.70466615  0.64823371     0.83400
O688        O  0.32642946  0.74874002  0.77432618    -0.78700
O689        O  0.40941864  0.60075070  0.73323873    -0.80200
O690        O  0.54882084  0.69338676  0.77567813    -0.80000
O691        O  0.50316560  0.80268532  0.77928870    -0.78600
Zn692      Zn  0.42176705  0.76058674  0.71803826     1.55700
O693        O  0.52235587  0.63715441  0.73717408    -0.80000
Cd694      Cd  0.48851164  0.73219498  0.78666018     1.59700
Cd695      Cd  0.37832340  0.69694037  0.78232749     1.59600
O696        O  0.47111811  0.72322639  0.84156480    -0.80000
O697        O  0.43540247  0.71134648  0.75261003    -1.90500
Cd698      Cd  0.45411933  0.65571598  0.72291071     1.59900
O699        O  0.39711540  0.69661947  0.83894651    -0.80000
O700        O  0.45223246  0.66863628  0.66590619    -0.78600
C701        C  0.32596125  0.78202051  0.75099345     0.87500
C702        C  0.49351490  0.82799987  0.75117843     0.83600
O703        O  0.42329812  0.74093842  0.66482634    -0.77600
C704        C  0.55515298  0.65646527  0.75649232     0.84400
O705        O  0.35899019  0.78737804  0.72849585    -0.77700
C706        C  0.43429891  0.70897807  0.85725648     0.84500
C707        C  0.37020881  0.59728287  0.74921845     0.84800
O708        O  0.35183330  0.63120518  0.76691666    -0.80100
O709        O  0.23995753  0.91360954  0.91151991    -0.77600
C710        C  0.32648956  0.98116679  0.99432747     0.83400
O711        O  0.25108677  0.81719672  0.52363925    -0.78700
O712        O  0.22318889  0.96588042  0.58745900    -0.80200
O713        O  0.14197799  0.02095963  0.97701732    -0.80000
O714        O  0.16715864  0.94249167  0.91005253    -0.78600
Zn715      Zn  0.25889152  0.91015842  0.96449036     1.55700
O716        O  0.19629934  0.04347719  0.51931172    -0.80000
Cd717      Cd  0.15668064  0.95043342  0.96776986     1.59700
Cd718      Cd  0.20060353  0.87207505  0.53102636     1.59600
O719        O  0.10091366  0.91137027  0.98580554    -0.80000
O720        O  0.21231109  0.92916034  0.99860851    -1.90500
Cd721      Cd  0.23208809  0.98178088  0.53157878     1.59900
O722        O  0.13101770  0.85383802  0.52143307    -0.80000
O723        O  0.30113905  0.99555767  0.52082538    -0.78600
C724        C  0.28451095  0.81662595  0.99940019     0.83900
C725        C  0.20361774  0.92768228  0.89359230     0.83600
O726        O  0.31199425  0.95104811  0.97109212    -0.77600
C727        C  0.16156133  0.05287180  0.99676426     0.84400
O728        O  0.28754122  0.84813197  0.97508513    -0.77700
C729        C  0.09716462  0.87461470  0.00536185     0.84500
C730        C  0.21208850  0.92842284  0.60406640     0.84800
O731        O  0.20371309  0.89037222  0.58671642    -0.80100
O732        O  0.24909577  0.91711430  0.66236585    -0.77600
C733        C  0.33818933  0.97920075  0.75292955     0.83400
O734        O  0.25626362  0.81883519  0.77381665    -0.78700
O735        O  0.22061643  0.96424106  0.83715657    -0.80200
O736        O  0.14735858  0.01490567  0.72937305    -0.80000
O737        O  0.17388151  0.93943996  0.66134174    -0.78600
Zn738      Zn  0.26790358  0.91385701  0.71615516     1.55700
O739        O  0.20712757  0.03944225  0.76647303    -0.80000
Cd740      Cd  0.16129942  0.94493732  0.71835049     1.59700
Cd741      Cd  0.20336334  0.86985170  0.77974852     1.59600
O742        O  0.10448492  0.90232975  0.73185170    -0.80000
O743        O  0.21773665  0.92620759  0.74910804    -1.90500
Cd744      Cd  0.23971338  0.97778254  0.78297197     1.59900
O745        O  0.13728857  0.84354483  0.76447721    -0.80000
O746        O  0.31297228  0.98656692  0.78093210    -0.78600
C747        C  0.28922352  0.81840910  0.75059188     0.83900
C748        C  0.21137645  0.92832771  0.64469196     0.83600
O749        O  0.32233285  0.95721738  0.72461435    -0.77600
C750        C  0.16969696  0.04711729  0.74698439     0.84400
O751        O  0.29413110  0.85122087  0.72750646    -0.77700
C752        C  0.10178367  0.86291341  0.74818965     0.84500
C753        C  0.20624463  0.92747873  0.85303888     0.84800
O754        O  0.19928816  0.88919898  0.83546718    -0.80100
O755        O  0.96253417  0.69189144  0.50455797    -0.77600
C756        C  0.93630501  0.78859903  0.60534945     0.83400
O757        O  0.82100896  0.75805415  0.97910028    -0.78700
O758        O  0.90563216  0.90353870  0.52056756    -0.80200
O759        O  0.04336327  0.82081530  0.98278662    -0.80000
O760        O  0.99783239  0.72098163  0.95635226    -0.78600
Zn761      Zn  0.92536030  0.74234629  0.52925671     1.55700
O762        O  0.01886548  0.86872608  0.52797538    -0.80000
Cd763      Cd  0.98351274  0.78955161  0.96526817     1.59700
Cd764      Cd  0.87432559  0.80705353  0.96803176     1.59600
O765        O  0.96724175  0.81589883  0.91385893    -0.80000
O766        O  0.93142634  0.79727124  0.50035717    -1.90500
Cd767      Cd  0.94862558  0.84843450  0.53528102     1.59900
O768        O  0.89124889  0.79778209  0.91199904    -0.80000
O769        O  0.93773108  0.82905215  0.59059754    -0.78600
C770        C  0.82379871  0.72462388  0.50186487     0.83900
C771        C  0.98591928  0.68742968  0.47515586     0.83600
O772        O  0.93675745  0.75147106  0.58553054    -0.77600
C773        C  0.05111139  0.85305681  0.00615691     0.84400
O774        O  0.86015355  0.71862071  0.52276867    -0.77700
C775        C  0.92946535  0.80663697  0.89573377     0.84500
C776        C  0.87082469  0.90946700  0.49787601     0.84800
O777        O  0.85477486  0.87656720  0.97690198    -0.80100
O778        O  0.96564063  0.67995381  0.78562883    -0.77600
C779        C  0.93180062  0.80222576  0.85538022     0.83400
O780        O  0.82491368  0.74711347  0.72954423    -0.78700
O781        O  0.91308322  0.89773165  0.76348125    -0.80200
O782        O  0.04915430  0.80086101  0.73279918    -0.80000
O783        O  0.99511555  0.69114439  0.73001621    -0.78600
Zn784      Zn  0.92251418  0.73742583  0.78863344     1.55700
O785        O  0.02333416  0.86038063  0.76712149    -0.80000
Cd786      Cd  0.98753047  0.76262501  0.72087550     1.59700
Cd787      Cd  0.87725500  0.79814274  0.71890791     1.59600
O788        O  0.97131358  0.77131199  0.66439978    -0.80000
O789        O  0.93486617  0.78509859  0.75184311    -1.90500
Cd790      Cd  0.95505217  0.84258231  0.77942562     1.59900
O791        O  0.89635112  0.79567938  0.66252391    -0.80000
O792        O  0.94835131  0.83557662  0.83657908    -0.78600
C793        C  0.82567018  0.71487015  0.75407230     0.83900
C794        C  0.98556681  0.66444865  0.75693247     0.83600
O795        O  0.91985495  0.76354007  0.84045734    -0.77600
C796        C  0.05568944  0.83995143  0.74941780     0.84400
O797        O  0.85989733  0.71034746  0.77724071    -0.77700
C798        C  0.93441479  0.78481641  0.64627651     0.84500
C799        C  0.87408740  0.90171658  0.74549592     0.84800
O800        O  0.85372721  0.86707891  0.72919986    -0.80100
O801        O  0.74657738  0.59459695  0.59380329    -0.77600
C802        C  0.84393297  0.52366826  0.51410147     0.83400
O803        O  0.75471453  0.68411365  0.97891696    -0.78700
O804        O  0.74001033  0.53549263  0.91823634    -0.80200
O805        O  0.64759119  0.48765035  0.51834532    -0.80000
O806        O  0.67595346  0.56114468  0.58825808    -0.78600
Zn807      Zn  0.77144967  0.59316483  0.54164392     1.55700
O808        O  0.70708735  0.46067560  0.98506604    -0.80000
Cd809      Cd  0.66569577  0.55567537  0.53138217     1.59700
Cd810      Cd  0.70595151  0.62942198  0.97113394     1.59600
O811        O  0.60926686  0.59805325  0.51774581    -0.80000
O812        O  0.72267603  0.57545581  0.50490631    -1.90500
Cd813      Cd  0.74530249  0.52103623  0.97508575     1.59900
O814        O  0.63756428  0.65355753  0.98156231    -0.80000
O815        O  0.81540285  0.50957863  0.98859495    -0.78600
C816        C  0.78770564  0.68777429  0.50338598     0.83900
C817        C  0.70917518  0.57919415  0.60795047     0.83600
O818        O  0.83145733  0.55195182  0.53940150    -0.77600
C819        C  0.66846954  0.45452561  0.00136078     0.84400
O820        O  0.79420422  0.65689917  0.52833585    -0.77700
C821        C  0.60431449  0.63564090  0.99970411     0.84500
C822        C  0.72384560  0.57039801  0.89985456     0.84800
O823        O  0.70844769  0.60722220  0.91571811    -0.80100
O824        O  0.75932105  0.57246864  0.84088463    -0.77600
C825        C  0.82395230  0.50577690  0.74014632     0.83400
O826        O  0.75201423  0.68087995  0.73425942    -0.78700
O827        O  0.70809100  0.53841935  0.66365927    -0.80200
O828        O  0.64436233  0.48330487  0.77826086    -0.80000
O829        O  0.68178754  0.56197062  0.84258288    -0.78600
Zn830      Zn  0.77107388  0.57856125  0.78507305     1.55700
O831        O  0.68487714  0.46238977  0.72897588    -0.80000
Cd832      Cd  0.66325417  0.55313884  0.78679548     1.59700
Cd833      Cd  0.70117790  0.62942913  0.72424952     1.59600
O834        O  0.60682567  0.59651517  0.77487993    -0.80000
O835        O  0.71508095  0.57118747  0.75397221    -1.90500
Cd836      Cd  0.72253262  0.51960941  0.71736169     1.59900
O837        O  0.63395495  0.65241121  0.73782429    -0.80000
O838        O  0.79005657  0.49738151  0.71760213    -0.78600
C839        C  0.78924767  0.67822380  0.75479777     0.83900
C840        C  0.72172329  0.56790426  0.85898926     0.83600
O841        O  0.82030937  0.53272588  0.76811136    -0.77600
C842        C  0.65648939  0.45327549  0.75411968     0.84400
O843        O  0.79814837  0.64249908  0.77495579    -0.77700
C844        C  0.60147389  0.63435732  0.75675782     0.84500
C845        C  0.70636737  0.57817753  0.64833467     0.84800
O846        O  0.70472964  0.61609116  0.66703536    -0.80100
O847        O  0.10018201  0.23817287  0.58788749    -0.77600
C848        C  0.19037587  0.28658215  0.00026557     0.83400
O849        O  0.01676516  0.31219874  0.97750458    -0.78700
O850        O  0.11605564  0.20197031  0.91122165    -0.80200
O851        O  0.10160940  0.10410251  0.51300407    -0.80000
O852        O  0.06540738  0.16877143  0.58223810    -0.78600
Zn853      Zn  0.09634758  0.26543933  0.53596776     1.55700
O854        O  0.16072140  0.13380345  0.98089154    -0.80000
Cd855      Cd  0.06009107  0.16050969  0.52533662     1.59700
Cd856      Cd  0.02631346  0.24096302  0.96524016     1.59600
O857        O  0.99205307  0.14281587  0.51080072    -0.80000
O858        O  0.07957645  0.21791807  0.99827900    -1.90500
Cd859      Cd  0.13613388  0.20178900  0.96786695     1.59900
O860        O  0.96480457  0.20162863  0.97432539    -0.80000
O861        O  0.18895153  0.25311105  0.97664828    -0.78600
C862        C  0.02812493  0.33912667  0.00478057     0.83900
C863        C  0.08482099  0.20067364  0.60196201     0.83600
O864        O  0.15929467  0.29157995  0.52397235    -0.77600
C865        C  0.14035656  0.09972543  0.99652925     0.84400
O866        O  0.05315180  0.32398327  0.53331442    -0.77700
C867        C  0.95886540  0.16308742  0.99136630     0.84500
C868        C  0.07985395  0.21698843  0.89279216     0.84800
O869        O  0.04398080  0.23403511  0.90885511    -0.80100
O870        O  0.08013935  0.25093867  0.83213604    -0.77600
C871        C  0.19072225  0.28275867  0.74829992     0.83400
O872        O  0.01332937  0.27835417  0.70114210    -0.78700
O873        O  0.12518366  0.20275330  0.66056324    -0.80200
O874        O  0.11319549  0.09942011  0.76741622    -0.80000
O875        O  0.07949210  0.17328909  0.83650408    -0.78600
Zn876      Zn  0.09095718  0.26161990  0.77591925     1.55700
O877        O  0.16635028  0.12657465  0.72813731    -0.80000
Cd878      Cd  0.06980625  0.15413363  0.78071618     1.59700
Cd879      Cd  0.03175042  0.21057439  0.70971840     1.59600
O880        O  0.99969558  0.13316367  0.77272752    -0.80000
O881        O  0.08511403  0.20582345  0.74682842    -1.90500
Cd882      Cd  0.14289400  0.19507616  0.71701528     1.59900
O883        O  0.97314249  0.17709668  0.72567558    -0.80000
O884        O  0.19369658  0.24716092  0.72710478    -0.78600
C885        C  0.02405821  0.31333194  0.72111207     0.83900
C886        C  0.07954318  0.21370357  0.85166369     0.83600
O887        O  0.15543845  0.28902990  0.76879211    -0.77600
C888        C  0.14897198  0.09382604  0.74744032     0.84400
O889        O  0.04905577  0.31011484  0.75104876    -0.77700
C890        C  0.96679520  0.14678263  0.75036179     0.84500
C891        C  0.08665181  0.19572492  0.64227608     0.84800
O892        O  0.04847851  0.18709724  0.65815455    -0.80100
O893        O  0.21993529  0.35948042  0.51892928    -0.77600
C894        C  0.29146716  0.43786139  0.60144181     0.83400
O895        O  0.22225198  0.50054219  0.94951408    -0.78700
O896        O  0.36881107  0.51931478  0.52666047    -0.80200
O897        O  0.38102462  0.35488717  0.97719565    -0.80000
O898        O  0.26089383  0.32150938  0.97723956    -0.78600
Zn899      Zn  0.24335005  0.42523405  0.52470072     1.55700
O900        O  0.40852286  0.40852930  0.51860001    -0.80000
Cd901      Cd  0.31072796  0.37411308  0.96624687     1.59700
Cd902      Cd  0.29201425  0.48390666  0.95909220     1.59600
O903        O  0.30438118  0.38890630  0.90958987    -0.80000
O904        O  0.29864015  0.43233748  0.99596354    -1.90500
Cd905      Cd  0.35092879  0.44894135  0.53212778     1.59900
O906        O  0.31784741  0.46545911  0.90857075    -0.80000
O907        O  0.33201320  0.43769100  0.58707483    -0.78600
C908        C  0.18737423  0.48824706  0.96817325     0.83900
C909        C  0.22629122  0.32389340  0.99896426     0.83600
O910        O  0.25362583  0.43838495  0.58113586    -0.77600
C911        C  0.41446717  0.37326769  0.99682312     0.84400
O912        O  0.19177800  0.46242245  0.49859970    -0.77700
C913        C  0.31247034  0.42649409  0.89209583     0.84500
C914        C  0.35537577  0.55080258  0.00274958     0.84800
O915        O  0.32602702  0.54287927  0.97631763    -0.80100
O916        O  0.22071688  0.35325716  0.77139705    -0.77600
C917        C  0.31051579  0.42649667  0.85165575     0.83400
O918        O  0.19796523  0.49393115  0.73024839    -0.78700
O919        O  0.36898477  0.51808618  0.76495202    -0.80200
O920        O  0.37671495  0.35244987  0.72515998    -0.80000
O921        O  0.25774056  0.32248556  0.72364895    -0.78600
Zn922      Zn  0.24710425  0.41530204  0.78408112     1.55700
O923        O  0.40806400  0.40687979  0.76303087    -0.80000
Cd924      Cd  0.30727924  0.37650328  0.71463009     1.59700
Cd925      Cd  0.26887108  0.48550145  0.71792214     1.59600
O926        O  0.30294191  0.39850972  0.65896016    -0.80000
O927        O  0.29378625  0.43154041  0.74803258    -1.90500
Cd928      Cd  0.35221255  0.44985285  0.77667119     1.59900
O929        O  0.27381417  0.47126529  0.66047652    -0.80000
O930        O  0.34348916  0.44499219  0.83372367    -0.78600
C931        C  0.17293500  0.48215880  0.75744374     0.83900
C932        C  0.22598374  0.32060806  0.74797546     0.83600
O933        O  0.27337715  0.41099539  0.83561628    -0.77600
C934        C  0.41165877  0.36976344  0.74368396     0.84400
O935        O  0.18989551  0.45828075  0.78426795    -0.77700
C936        C  0.28886587  0.43580188  0.64248839     0.84500
C937        C  0.34723982  0.55153481  0.74859610     0.84800
O938        O  0.30753326  0.54609872  0.73139112    -0.80100
O939        O  0.01867098  0.47423257  0.89350533    -0.77600
C940        C  0.13961736  0.49990426  0.95549987     0.83400
O941        O  0.01690670  0.41973202  0.52750606    -0.78700
O942        O  0.08061554  0.58679499  0.51478444    -0.80200
O943        O  0.96283379  0.60985240  0.96766724    -0.80000
O944        O  0.96879610  0.53242333  0.89547828    -0.78600
Zn945      Zn  0.04126642  0.46360441  0.94563966     1.55700
O946        O  0.03373546  0.62851238  0.44781560    -0.80000
Cd947      Cd  0.96092174  0.54340070  0.95058436     1.59700
Cd948      Cd  0.00151032  0.49504018  0.52493078     1.59600
O949        O  0.90377131  0.51616237  0.97277417    -0.80000
O950        O  0.01614004  0.51373670  0.97297643    -1.90500
Cd951      Cd  0.06179328  0.56483614  0.46519062     1.59900
O952        O  0.92700301  0.51061584  0.53237491    -0.80000
O953        O  0.12728704  0.54142931  0.44974035    -0.78600
C954        C  0.02055307  0.39023523  0.99965217     0.83900
C955        C  0.97678370  0.48894049  0.89693915     0.83600
O956        O  0.10985303  0.46704521  0.95542643    -0.77600
C957        C  0.99511424  0.64034172  0.46236434     0.84400
O958        O  0.02250151  0.40346066  0.96631983    -0.77700
C959        C  0.89417796  0.51553967  0.50718391     0.84500
C960        C  0.07391671  0.57527922  0.54760462     0.84800
O961        O  0.04716932  0.54109937  0.55677604    -0.80100
O962        O  0.04468404  0.38946122  0.70924924    -0.77600
C963        C  0.01809098  0.51419485  0.64791653     0.83400
O964        O  0.09366789  0.49740203  0.77892705    -0.78700
O965        O  0.97467736  0.59907481  0.71956793    -0.80200
O966        O  0.88883177  0.45330752  0.73852405    -0.80000
O967        O  0.96948743  0.37219130  0.70095185    -0.78600
Zn968      Zn  0.04614262  0.45663438  0.69831714     1.55700
O969        O  0.89210388  0.52360131  0.71184555    -0.80000
Cd970      Cd  0.95767421  0.43206171  0.73033739     1.59700
Cd971      Cd  0.01865948  0.51141712  0.77464487     1.59600
O972        O  0.98700297  0.40922090  0.77757666    -0.80000
O973        O  0.99817312  0.48734675  0.72466491    -1.90500
Cd974      Cd  0.95930004  0.53435227  0.69855644     1.59900
O975        O  0.97169052  0.47298738  0.80833890    -0.80000
O976        O  0.97435489  0.52275027  0.64436737    -0.78600
C977        C  0.12153497  0.48672890  0.75267321     0.83900
C978        C  0.01179282  0.35985364  0.70836473     0.83600
O979        O  0.03244703  0.47235774  0.64498156    -0.77600
C980        C  0.87053467  0.49256180  0.72943554     0.84400
O981        O  0.10639267  0.47483449  0.72073140    -0.77700
C982        C  0.96465293  0.42942931  0.80209917     0.84500
C983        C  0.98981779  0.61356018  0.75102206     0.84800
O984        O  0.00498868  0.58546067  0.77641674    -0.80100
C985        C  0.90947569  0.39290776  0.91621908     0.30700
C986        C  0.91035507  0.35040472  0.89681583    -0.35700
C987        C  0.89832063  0.35674955  0.85917455     0.16600
C988        C  0.86664983  0.39294479  0.84899163     0.22500
C989        C  0.84253389  0.41561603  0.87698770    -0.33800
C990        C  0.87297469  0.42485253  0.90736013     0.16600
O991        O  0.95043148  0.41426179  0.92024682    -0.25800
C992        C  0.94148529  0.45866766  0.91352786     0.06300
C993        C  0.89403275  0.46758519  0.90856933    -0.30700
O994        O  0.88485756  0.42056453  0.82412315    -0.22500
C995        C  0.92681466  0.40276907  0.81833154    -0.02500
C996        C  0.93468208  0.36056370  0.83549071    -0.17000
H997        H  0.93908521  0.32660332  0.90359855     0.21000
H998        H  0.81780530  0.44353388  0.86843353     0.19400
H999        H  0.87935334  0.49929160  0.89580399     0.19300
H1000       H  0.96863447  0.34421535  0.83889492     0.15200
C1001       C  0.07493231  0.61656242  0.67385090     0.30700
C1002       C  0.07740843  0.65805539  0.65373150    -0.35700
C1003       C  0.10324677  0.65194824  0.62163821     0.16600
C1004       C  0.14050253  0.61914975  0.62151470     0.22500
C1005       C  0.15400107  0.59770482  0.65474322    -0.33800
C1006       C  0.11449004  0.58685492  0.67505193     0.16600
O1007       O  0.03543111  0.59278610  0.66969384    -0.25800
C1008       C  0.04843621  0.54867085  0.66709960     0.06300
C1009       C  0.09633526  0.54308618  0.67117417    -0.30700
O1010       O  0.13712569  0.59120560  0.59247685    -0.22500
C1011       C  0.09821008  0.60461944  0.57485678    -0.02500
C1012       C  0.07856293  0.64446376  0.58912714    -0.17000
H1013       H  0.04573333  0.67944073  0.65168605     0.21000
H1014       H  0.18188160  0.57164801  0.65376558     0.19400
H1015       H  0.11572008  0.51290414  0.66137660     0.19300
H1016       H  0.04330412  0.65715177  0.58225202     0.15200
C1017       C  0.62287659  0.11498213  0.86737918     0.30700
C1018       C  0.63432067  0.10792606  0.90480130    -0.35700
C1019       C  0.59372144  0.10140781  0.92513288     0.16600
C1020       C  0.55246588  0.12626790  0.91564126     0.22500
C1021       C  0.55334752  0.15783358  0.88641381    -0.33800
C1022       C  0.58157396  0.14080982  0.85828994     0.16600
O1023       O  0.62641295  0.07719097  0.84666830    -0.25800
C1024       C  0.58620098  0.07542490  0.82777062     0.06300
C1025       C  0.55931899  0.11511213  0.83117484    -0.30700
O1026       O  0.51458894  0.10027216  0.91762509    -0.22500
C1027       C  0.53046768  0.05823259  0.92598606    -0.02500
C1028       C  0.57861567  0.05700911  0.93159760    -0.17000
H1029       H  0.66411903  0.08565513  0.91118801     0.21000
H1030       H  0.52045674  0.17461400  0.87833719     0.19400
H1031       H  0.52228719  0.11784355  0.82309210     0.19300
H1032       H  0.59998403  0.02621052  0.92826090     0.15200
C1033       C  0.48540489  0.15430360  0.58770581     0.30700
C1034       C  0.53489610  0.15789875  0.59231232    -0.35700
C1035       C  0.55261063  0.13676123  0.62475411     0.16600
C1036       C  0.52565852  0.13877705  0.65614758     0.22500
C1037       C  0.48073911  0.15953885  0.65375457    -0.33800
C1038       C  0.45858667  0.15201592  0.61927144     0.16600
O1039       O  0.47105554  0.12342191  0.56309113    -0.25800
C1040       C  0.44396288  0.09431688  0.58043122     0.06300
C1041       C  0.43091948  0.11280609  0.61390548    -0.30700
O1042       O  0.52816429  0.09957557  0.67443912    -0.22500
C1043       C  0.55089794  0.06980815  0.65396826    -0.02500
C1044       C  0.57053795  0.09167299  0.62415251    -0.17000
H1045       H  0.55619509  0.15489960  0.56832002     0.21000
H1046       H  0.45866209  0.15762106  0.67744511     0.19400
H1047       H  0.41717482  0.09223745  0.63611888     0.19300
H1048       H  0.58274951  0.07388573  0.59978932     0.15200
loop_ 
_geom_bond_atom_site_label_1 
_geom_bond_atom_site_label_2 
_geom_bond_distance 
_geom_bond_site_symmetry_2 
_ccdc_geom_bond_type 
O1           C17   1.278       .  A
O1           Zn7   2.021       .  S
C2           O18   1.277       .  A
C2           O15   1.275       .  A
C2           C44   1.476       .  S
O3          C540   1.270       .  A
O3          Cd10   2.068       .  S
O4          C546   1.277       .  A
O4          Cd13   2.080   1_565  S
O5           C19   1.277   1_554  A
O5           Cd9   2.088       .  S
O6          C541   1.275   1_554  A
O6           Cd9   2.088       .  S
Zn7          O18   2.055       .  S
Zn7          O20   2.034       .  S
Zn7          O12   1.931       .  S
O8          C543   1.278       .  A
O8          Cd13   2.085       .  S
Cd9          O11   2.113       .  S
Cd9         O536   2.021   1_554  S
Cd10         O14   2.060       .  S
Cd10         O23   2.047   1_545  S
Cd10        O536   2.000   1_554  S
O11          C21   1.279       .  A
O12         Cd13   1.997       .  S
O12        Cd533   2.020       .  S
O12        Cd534   2.000       .  S
Cd13         O15   2.089       .  S
O14          C21   1.272       .  A
C16          O20   1.276       .  A
C16         O527   1.271       .  A
C16         C108   1.464       .  S
C17         O530   1.275       .  A
C17          C48   1.474       .  S
C19         O532   1.278       .  A
C19         C867   1.466       .  S
C21          C25   1.471       .  S
C22          O23   1.271   1_556  A
C22         O528   1.277       .  A
C22         C252   1.453       .  S
O24          C40   1.273       .  A
O24         Zn30   2.000       .  S
C25          O41   1.271       .  A
C25          O38   1.275       .  A
O26          C39   1.272   1_565  A
O26         Cd33   2.065   1_565  S
O27          C45   1.275       .  A
O27         Cd36   2.075   1_565  S
O28          C42   1.281       .  A
O28         Cd32   2.092       .  S
O29          C40   1.281       .  A
O29         Cd32   2.149       .  S
Zn30         O41   2.019       .  S
Zn30         O43   1.979       .  S
Zn30         O35   1.912       .  S
O31          C42   1.275       .  A
O31         Cd36   2.056       .  S
Cd32         O34   2.087       .  S
Cd32         O35   2.023       .  S
Cd33         O37   2.109       .  S
Cd33         O46   2.076   1_545  S
Cd33         O35   2.021       .  S
O34          C44   1.277       .  A
O35         Cd36   2.002       .  S
Cd36         O38   2.100       .  S
O37          C44   1.280       .  A
C39          O43   1.272       .  A
C39         C117   1.450       .  S
C40          C71   1.495       .  S
C42         C366   1.454       .  S
C45          O46   1.273       .  A
C45         C275   1.462       .  S
O47          C63   1.265       .  A
O47         Zn53   1.980       .  S
C48          O64   1.267       .  A
C48         O585   1.280       .  A
O49         C586   1.270   1_554  A
O49         Cd56   2.056       .  S
O50          C68   1.281       .  A
O50         Cd59   2.120       .  S
O51          C65   1.277       .  A
O51         Cd55   2.068       .  S
O52          C63   1.277       .  A
O52         Cd55   2.110       .  S
Zn53         O64   1.965       .  S
Zn53         O66   1.956       .  S
Zn53         O58   1.917       .  S
O54         C589   1.281   1_554  A
O54         Cd59   2.097       .  S
Cd55         O57   2.097       .  S
Cd55         O58   2.000       .  S
Cd56         O60   2.049       .  S
Cd56         O69   2.068       .  S
Cd56        O582   2.004   1_554  S
O57          C67   1.278       .  A
O58        Cd580   2.001       .  S
O58        Cd583   2.021       .  S
Cd59         O61   2.126       .  S
Cd59        O582   2.023   1_554  S
O60         C591   1.270   1_554  A
O61         C572   1.280   1_554  A
C62          O66   1.263       .  A
C62         O573   1.270       .  A
C62         C109   1.448       .  S
C63          C91   1.465       .  S
C65         O578   1.280       .  A
C65         C295   1.461       .  S
C67         O584   1.269       .  A
C67         C387   1.459       .  S
C68          O69   1.273       .  A
C68          C86   1.474       .  S
O70          C86   1.273       .  A
O70         Zn76   2.031       .  S
C71          O87   1.271       .  A
C71          O84   1.282       .  A
O72          C85   1.272       .  A
O72         Cd79   2.078       .  S
O73          C91   1.277       .  A
O73         Cd82   2.090       .  S
O74          C88   1.273       .  A
O74         Cd78   2.043       .  S
O75          C86   1.276       .  A
O75         Cd78   2.097       .  S
Zn76         O87   1.995       .  S
Zn76         O89   1.971       .  S
Zn76         O81   1.912       .  S
O77          C88   1.279       .  A
O77         Cd82   2.081       .  S
Cd78         O80   2.090       .  S
Cd78         O81   1.999       .  S
Cd79         O83   2.078       .  S
Cd79         O92   2.076       .  S
Cd79         O81   2.022       .  S
O80          C90   1.275       .  A
O81         Cd82   2.031       .  S
Cd82         O84   2.160       .  S
O83          C90   1.273       .  A
C85          O89   1.272       .  A
C85         C131   1.450       .  S
C88         C318   1.448       .  S
C90         C410   1.470       .  S
C91          O92   1.275       .  A
O93         C633   1.270   1_554  A
O93         Zn99   1.977       .  S
C94         O110   1.276       .  A
C94         O107   1.264       .  A
C94         C516   1.475       .  S
O95         C108   1.276   1_565  A
O95        Cd102   2.079       .  S
O96         C638   1.278       .  A
O96        Cd105   2.065       .  S
O97         C111   1.269   1_545  A
O97        Cd101   2.057       .  S
O98         C109   1.275       .  A
O98        Cd101   2.089       .  S
Zn99        O110   1.992       .  S
Zn99        O112   2.027       .  S
Zn99        O628   1.849   1_554  S
O100        C635   1.267       .  A
O100       Cd105   2.002   1_556  S
Cd101       O103   2.054       .  S
Cd101       O104   2.039       .  S
Cd102       O106   2.060       .  S
Cd102       O115   2.077       .  S
Cd102       O104   1.993   1_565  S
O103        C113   1.264       .  A
O104       Zn623   1.849       .  S
O104       Cd629   1.955   1_545  S
Cd105       O107   2.078   1_565  S
Cd105       O628   1.955   1_564  S
O106        C113   1.269   1_565  A
C108        O636   1.277       .  A
C109        O617   1.270       .  A
C111        O624   1.266       .  A
C111        C186   1.428       .  S
O112        C632   1.277       .  A
C113        C503   1.464       .  S
C114        O115   1.278       .  A
C114        O620   1.279       .  A
C114        C155   1.459       .  S
O116        C132   1.254       .  A
O116       Zn122   1.942       .  S
C117        O133   1.256       .  A
C117        O130   1.273   1_545  A
O118        C131   1.279       .  A
O118       Cd125   2.131       .  S
O119        C137   1.273   1_565  A
O119       Cd128   2.105       .  S
O120        C134   1.286       .  A
O120       Cd124   2.108       .  S
O121        C132   1.280       .  A
O121       Cd124   2.098   1_545  S
Zn122       O133   1.949       .  S
Zn122       O135   1.937       .  S
Zn122       O127   1.849       .  S
O123        C134   1.284       .  A
O123       Cd128   2.068       .  S
Cd124       O126   2.110       .  S
Cd124       O127   1.942   1_565  S
Cd125       O129   2.052       .  S
Cd125       O138   2.065       .  S
Cd125       O127   1.949       .  S
O126        C136   1.281       .  A
O127       Cd128   2.000   1_545  S
Cd128       O130   2.107       .  S
O129        C136   1.275   1_545  A
C131        O135   1.263       .  A
C132        C500   1.457       .  S
C134        C178   1.466       .  S
C136        C209   1.465       .  S
C137        O138   1.275       .  A
C137        C519   1.476       .  S
O139        C155   1.272       .  A
O139       Zn145   1.999       .  S
C140        O156   1.274       .  A
C140        O153   1.274       .  A
C140        C182   1.474       .  S
O141        C678   1.279       .  A
O141       Cd148   2.125       .  S
O142        C160   1.273       .  A
O142       Cd151   2.052       .  S
O143        C681   1.276       .  A
O143       Cd147   2.086       .  S
O144        C679   1.274       .  A
O144       Cd147   2.080       .  S
Zn145       O156   2.035       .  S
Zn145       O158   2.012       .  S
Zn145       O150   1.924       .  S
O146        C157   1.274       .  A
O146       Cd151   2.069       .  S
Cd147       O149   2.087       .  S
Cd147       O674   2.011       .  S
Cd148       O152   2.085       .  S
Cd148       O161   2.088       .  S
Cd148       O674   2.023       .  S
O149        C159   1.276       .  A
O150       Cd151   1.998       .  S
O150       Cd671   2.014       .  S
O150       Cd672   2.026       .  S
Cd151       O153   2.092       .  S
O152        C159   1.276       .  A
C154        O158   1.276       .  A
C154        O665   1.279       .  A
C154        C200   1.486       .  S
C155        O668   1.275       .  A
C157        O667   1.277       .  A
C157        C297   1.463       .  S
C159        C163   1.468       .  S
C160        O685   1.278       .  A
C160        C390   1.454       .  S
O161        C684   1.278       .  A
O162        C178   1.271       .  A
O162       Zn168   2.004       .  S
C163        O179   1.270       .  A
C163        O176   1.275       .  A
O164        C177   1.277       .  A
O164       Cd171   2.099       .  S
O165        C183   1.275       .  A
O165       Cd174   2.068       .  S
O166        C180   1.277       .  A
O166       Cd170   2.087       .  S
O167        C178   1.275       .  A
O167       Cd170   2.089       .  S
Zn168       O179   2.004       .  S
Zn168       O181   1.980       .  S
Zn168       O173   1.920       .  S
O169        C180   1.273       .  A
O169       Cd174   2.052       .  S
Cd170       O172   2.087       .  S
Cd170       O173   2.006       .  S
Cd171       O175   2.103       .  S
Cd171       O184   2.097       .  S
Cd171       O173   2.019       .  S
O172        C182   1.277       .  A
O173       Cd174   1.996       .  S
Cd174       O176   2.097       .  S
O175        C182   1.279       .  A
C177        O181   1.272       .  A
C177        C223   1.469       .  S
C180        C320   1.455       .  S
C183        O184   1.279       .  A
C183        C413   1.466       .  S
O185        C201   1.266       .  A
O185       Zn191   1.982       .  S
C186        O202   1.263       .  A
C186        O723   1.273       .  A
O187        C724   1.280   1_554  A
O187       Cd194   2.139       .  S
O188        C206   1.278       .  A
O188       Cd197   2.100       .  S
O189        C203   1.275       .  A
O189       Cd193   2.086   1_545  S
O190        C201   1.280       .  A
O190       Cd193   2.132       .  S
Zn191       O202   1.926       .  S
Zn191       O204   1.978       .  S
Zn191       O196   1.913       .  S
O192        C727   1.272   1_554  A
O192       Cd197   2.075   1_545  S
Cd193       O195   2.067       .  S
Cd193       O196   1.997       .  S
Cd194       O198   2.068       .  S
Cd194       O207   2.078       .  S
Cd194       O720   2.018   1_554  S
O195        C205   1.278       .  A
O196       Cd718   2.020       .  S
O196       Cd721   2.008       .  S
Cd197       O199   2.052       .  S
Cd197       O720   2.009   1_554  S
O198        C729   1.278       .  A
O199        C710   1.273   1_554  A
C200        O204   1.268       .  A
C200        O711   1.280       .  A
C201        C229   1.474       .  S
C203        O716   1.272       .  A
C203        C341   1.467       .  S
C205        O722   1.278       .  A
C205        C249   1.447       .  S
C206        O207   1.274       .  A
C206        C224   1.472       .  S
O208        C224   1.270       .  A
O208       Zn214   2.007       .  S
C209        O225   1.271       .  A
C209        O222   1.276       .  A
O210        C223   1.278       .  A
O210       Cd217   2.101       .  S
O211        C229   1.277       .  A
O211       Cd220   2.092       .  S
O212        C226   1.278       .  A
O212       Cd216   2.078   1_545  S
O213        C224   1.278       .  A
O213       Cd216   2.110       .  S
Zn214       O225   1.999       .  S
Zn214       O227   1.982       .  S
Zn214       O219   1.918       .  S
O215        C226   1.274       .  A
O215       Cd220   2.068   1_545  S
Cd216       O218   2.099       .  S
Cd216       O219   1.993       .  S
Cd217       O221   2.080       .  S
Cd217       O230   2.098       .  S
Cd217       O219   2.014       .  S
O218        C228   1.281       .  A
O219       Cd220   2.002       .  S
Cd220       O222   2.097       .  S
O221        C228   1.276       .  A
C223        O227   1.272       .  A
C226        C364   1.457       .  S
C228        C272   1.469       .  S
C229        O230   1.277       .  A
O231        C247   1.278   1_554  A
O231       Zn237   2.009       .  S
C232        O248   1.279       .  A
C232        O245   1.279       .  A
C232        C274   1.488       .  S
O233        C770   1.279       .  A
O233       Cd240   2.120       .  S
O234        C252   1.275   1_554  A
O234       Cd243   2.053       .  S
O235        C249   1.263       .  A
O235       Cd239   2.000   1_455  S
O236        C771   1.266       .  A
O236       Cd239   2.031       .  S
Zn237       O248   2.065       .  S
Zn237       O250   1.979       .  S
Zn237       O242   1.906       .  S
O238        C773   1.280       .  A
O238       Cd243   2.107   1_455  S
Cd239       O241   2.046       .  S
Cd239       O766   1.987       .  S
Cd240       O244   2.118       .  S
Cd240       O253   2.090       .  S
Cd240       O766   2.008       .  S
O241        C251   1.266       .  A
O242       Cd243   1.983       .  S
O242       Cd763   1.987   1_554  S
O242       Cd764   2.009   1_554  S
Cd243       O245   2.114       .  S
O244        C251   1.279       .  A
C246        O250   1.270       .  A
C246        O757   1.279   1_554  A
C246        C292   1.476       .  S
C247        O760   1.266       .  A
C247        C433   1.448       .  S
C249        O762   1.279       .  A
C251        C255   1.469       .  S
C252        O777   1.281       .  A
O253        C776   1.281       .  A
O254        C270   1.275       .  A
O254       Zn260   2.049       .  S
C255        O271   1.272       .  A
C255        O268   1.276       .  A
O256        C269   1.283       .  A
O256       Cd263   2.133       .  S
O257        C275   1.270       .  A
O257       Cd266   2.043       .  S
O258        C272   1.279       .  A
O258       Cd262   2.099   1_455  S
O259        C270   1.278       .  A
O259       Cd262   2.080       .  S
Zn260       O271   2.017       .  S
Zn260       O273   1.978       .  S
Zn260       O265   1.951       .  S
O261        C272   1.275       .  A
O261       Cd266   2.071   1_455  S
Cd262       O264   2.093       .  S
Cd262       O265   1.996       .  S
Cd263       O267   2.130       .  S
Cd263       O276   2.113       .  S
Cd263       O265   2.024       .  S
O264        C274   1.276       .  A
O265       Cd266   1.995       .  S
Cd266       O268   2.095       .  S
O267        C274   1.283       .  A
C269        O273   1.269       .  A
C269        C315   1.479       .  S
C270        C459   1.475       .  S
C275        O276   1.282       .  A
O277        C293   1.276       .  A
O277       Zn283   2.040       .  S
C278        O294   1.277       .  A
C278        O815   1.276   1_554  A
C278        C435   1.476       .  S
O279        C816   1.278       .  A
O279       Cd286   2.108       .  S
O280        C298   1.278       .  A
O280       Cd289   2.100       .  S
O281        C819   1.274       .  A
O281       Cd285   2.070       .  S
O282        C293   1.274       .  A
O282       Cd285   2.076       .  S
Zn283       O294   2.075       .  S
Zn283       O296   2.002       .  S
Zn283       O288   1.957       .  S
O284        C295   1.274       .  A
O284       Cd289   2.080       .  S
Cd285       O287   2.054       .  S
Cd285       O288   1.995       .  S
Cd286       O290   2.102       .  S
Cd286       O299   2.102       .  S
Cd286       O812   2.026       .  S
O287        C821   1.272   1_554  A
O288       Cd810   2.028   1_554  S
O288       Cd813   2.001   1_554  S
Cd289       O291   2.057       .  S
Cd289       O812   1.999       .  S
O290        C297   1.279       .  A
O291        C802   1.276       .  A
C292        O296   1.275       .  A
C292        O803   1.278   1_554  A
C293        C321   1.468       .  S
C295        O805   1.273       .  A
C297        O811   1.272       .  A
C298        O299   1.279       .  A
C298        C316   1.478       .  S
O300        C316   1.277       .  A
O300       Zn306   2.059       .  S
C301        O317   1.275       .  A
C301        O314   1.265       .  A
C301        C456   1.436       .  S
O302        C315   1.274       .  A
O302       Cd309   2.090       .  S
O303        C321   1.268       .  A
O303       Cd312   2.045       .  S
O304        C318   1.276       .  A
O304       Cd308   2.092       .  S
O305        C316   1.274       .  A
O305       Cd308   2.085       .  S
Zn306       O317   2.014       .  S
Zn306       O319   2.032       .  S
Zn306       O311   1.928       .  S
O307        C318   1.264       .  A
O307       Cd312   2.012       .  S
Cd308       O310   2.056       .  S
Cd308       O311   1.992       .  S
Cd309       O313   2.089       .  S
Cd309       O322   2.113       .  S
Cd309       O311   2.017       .  S
O310        C320   1.275       .  A
O311       Cd312   1.991       .  S
Cd312       O314   2.014       .  S
O313        C320   1.280       .  A
C315        O319   1.279       .  A
C321        O322   1.278       .  A
O323        C339   1.276       .  A
O323       Zn329   2.041       .  S
C324        O337   1.281       .  A
C324        O864   1.274       .  A
C324        C385   1.483       .  S
O325        C338   1.283       .  A
O325       Cd332   2.103       .  S
O326        C344   1.281       .  A
O326       Cd335   2.112       .  S
O327        C865   1.270   1_554  A
O327       Cd331   2.050       .  S
O328        C339   1.273       .  A
O328       Cd331   2.077       .  S
Zn329       O340   2.004       .  S
Zn329       O342   2.069       .  S
Zn329       O858   1.958   1_554  S
O330        C341   1.281       .  A
O330       Cd335   2.117       .  S
Cd331       O333   2.046   1_455  S
Cd331       O858   1.997   1_554  S
Cd332       O336   2.121   1_455  S
Cd332       O345   2.127       .  S
Cd332       O334   2.008       .  S
O333        C867   1.270   1_554  A
O334       Zn853   1.960       .  S
O334       Cd335   2.028       .  S
O334       Cd855   1.999       .  S
Cd335       O337   2.123       .  S
O336        C343   1.282       .  A
C338        O866   1.277       .  A
C338        C430   1.490       .  S
C339        C367   1.469       .  S
O340        C848   1.274       .  A
C341        O851   1.270       .  A
O342        C862   1.277       .  A
C343        O857   1.271       .  A
C343        C543   1.469       .  S
C344        O345   1.282       .  A
C344        C362   1.492       .  S
O346        C362   1.283       .  A
O346       Zn352   2.097       .  S
C347        O363   1.277       .  A
C347        O360   1.277       .  A
C347        C408   1.481       .  S
O348        C361   1.265       .  A
O348       Cd355   2.034       .  S
O349        C367   1.276       .  A
O349       Cd358   2.104       .  S
O350        C364   1.274       .  A
O350       Cd354   2.050       .  S
O351        C362   1.278       .  A
O351       Cd354   2.100       .  S
Zn352       O363   2.021       .  S
Zn352       O365   2.021       .  S
Zn352       O357   1.917       .  S
O353        C364   1.283       .  A
O353       Cd358   2.105       .  S
Cd354       O356   2.092       .  S
Cd354       O357   1.989       .  S
Cd355       O359   2.030   1_455  S
Cd355       O368   2.056       .  S
Cd355       O357   1.997       .  S
O356        C366   1.276   1_455  A
O357       Cd358   2.015       .  S
Cd358       O360   2.107       .  S
O359        C366   1.267       .  A
C361        O365   1.279       .  A
C361        C454   1.451       .  S
C367        O368   1.270       .  A
O369        C909   1.275   1_554  A
O369       Zn375   2.011       .  S
C370        O386   1.282       .  A
C370        O383   1.279       .  A
C370        C412   1.492       .  S
O371        C384   1.269       .  A
O371       Cd378   2.053       .  S
O372        C914   1.277       .  A
O372       Cd381   2.092       .  S
O373        C387   1.280       .  A
O373       Cd377   2.090       .  S
O374        C385   1.280       .  A
O374       Cd377   2.122       .  S
Zn375       O386   2.089       .  S
Zn375       O388   2.018   1_554  S
Zn375       O904   1.918   1_554  S
O376        C911   1.277   1_554  A
O376       Cd381   2.073       .  S
Cd377       O379   2.101       .  S
Cd377       O380   2.014       .  S
Cd378       O382   2.062       .  S
Cd378       O391   2.035       .  S
Cd378       O380   1.999       .  S
O379        C389   1.277       .  A
O380       Zn899   1.919       .  S
O380       Cd905   1.988       .  S
Cd381       O383   2.103       .  S
Cd381       O904   1.986   1_554  S
O382        C389   1.270       .  A
C384        O912   1.278       .  A
C384        C416   1.455       .  S
C385        O893   1.275       .  A
C387        O900   1.276       .  A
O388        C908   1.278       .  A
C389        C393   1.466       .  S
C390        O391   1.268       .  A
C390        O896   1.277       .  A
O392        C408   1.271       .  A
O392       Zn398   1.981       .  S
C393        O409   1.269       .  A
C393        O406   1.276       .  A
O394        C407   1.280       .  A
O394       Cd401   2.089       .  S
O395        C413   1.274       .  A
O395       Cd404   2.064       .  S
O396        C410   1.280       .  A
O396       Cd400   2.111       .  S
O397        C408   1.283       .  A
O397       Cd400   2.133       .  S
Zn398       O409   1.996       .  S
Zn398       O411   2.030       .  S
Zn398       O403   1.951       .  S
O399        C410   1.275       .  A
O399       Cd404   2.071       .  S
Cd400       O402   2.116       .  S
Cd400       O403   2.025       .  S
Cd401       O405   2.126       .  S
Cd401       O414   2.104       .  S
Cd401       O403   2.010       .  S
O402        C412   1.281       .  A
O403       Cd404   2.001       .  S
Cd404       O406   2.097       .  S
O405        C412   1.282       .  A
C407        O411   1.271       .  A
C407        C453   1.469       .  S
C413        O414   1.280       .  A
O415        C431   1.269   1_455  A
O415       Zn421   1.996       .  S
C416        O432   1.268       .  A
C416        O953   1.273       .  A
O417        C954   1.295   1_554  A
O417       Cd424   2.197       .  S
O418        C436   1.256       .  A
O418       Cd427   1.960   1_554  S
O419        C957   1.262       .  A
O419       Cd423   1.995       .  S
O420        C431   1.265       .  A
O420       Cd423   2.036       .  S
Zn421       O432   1.975       .  S
Zn421       O434   1.965       .  S
Zn421       O426   1.889       .  S
O422        C433   1.275   1_455  A
O422       Cd427   2.074       .  S
Cd423       O425   1.992       .  S
Cd423       O426   1.937   1_655  S
Cd424       O428   2.185   1_455  S
Cd424       O437   2.158       .  S
Cd424       O950   1.980   1_554  S
O425        C959   1.264       .  A
O426       Cd948   1.980       .  S
O426       Cd951   2.002       .  S
Cd427       O429   2.067       .  S
Cd427       O950   2.000       .  S
O428        C435   1.289       .  A
O429        C940   1.273       .  A
C430        O434   1.269       .  A
C430        O941   1.294       .  A
C431        C468   1.475       .  S
C433        O943   1.263       .  A
C435        O949   1.264   1_554  A
C436        O437   1.293       .  A
C436        C487   1.452       .  S
O438        C454   1.265       .  A
O438       Zn444   1.974       .  S
C439        O455   1.268       .  A
C439        O452   1.266   1_455  A
C439        C484   1.469       .  S
O440        C453   1.290       .  A
O440       Cd447   2.160       .  S
O441        C459   1.272       .  A
O441       Cd450   2.044       .  S
O442        C456   1.275       .  A
O442       Cd446   2.075       .  S
O443        C454   1.270   1_655  A
O443       Cd446   2.044       .  S
Zn444       O455   2.012       .  S
Zn444       O457   1.950       .  S
Zn444       O449   1.897   1_455  S
O445        C456   1.267       .  A
O445       Cd450   2.002       .  S
Cd446       O448   1.990       .  S
Cd446       O449   1.980       .  S
Cd447       O451   2.145   1_455  S
Cd447       O460   2.151       .  S
Cd447       O449   2.002   1_455  S
O448        C458   1.246       .  A
O449       Cd450   1.963       .  S
Cd450       O452   2.047       .  S
O451        C458   1.281       .  A
C453        O457   1.267       .  A
C458        C471   1.461       .  S
C459        O460   1.286   1_655  A
C461        C466   1.408       .  A
C461        C462   1.402       .  A
C461        O467   1.320       .  A
C462        C463   1.406       .  A
C462        H473   1.077       .  S
C463        C472   1.369       .  A
C463        C464   1.409       .  A
C464        C465   1.397       .  A
C464        O470   1.321       .  A
C465        C466   1.401       .  A
C465        H474   1.093       .  S
C466        C469   1.365       .  A
O467        C468   1.317       .  A
C468        C469   1.376       .  A
C469        H475   1.092       .  S
O470        C471   1.315       .  A
C471        C472   1.376       .  A
C472        H476   1.066       .  S
C477        C482   1.404       .  A
C477        C478   1.400       .  A
C477        O483   1.319       .  A
C478        C479   1.404       .  A
C478        H489   1.085       .  S
C479        C488   1.366       .  A
C479        C480   1.410       .  A
C480        C481   1.394       .  A
C480        O486   1.318       .  A
C481        C482   1.398       .  A
C481        H490   1.086       .  S
C482        C485   1.362       .  A
O483        C484   1.318       .  A
C484        C485   1.371       .  A
C485        H491   1.085       .  S
O486        C487   1.313       .  A
C487        C488   1.373       .  A
C488        H492   1.085       .  S
C493        C498   1.413       .  A
C493        C494   1.399       .  A
C493        O499   1.319       .  A
C494        C495   1.402       .  A
C494        H505   1.076       .  S
C495        C504   1.368       .  A
C495        C496   1.401       .  A
C496        C497   1.395       .  A
C496        O502   1.315       .  A
C497        C498   1.399       .  A
C497        H506   1.081       .  S
C498        C501   1.364       .  A
O499        C500   1.313       .  A
C500        C501   1.371       .  A
C501        H507   1.085       .  S
O502        C503   1.316       .  A
C503        C504   1.376       .  A
C504        H508   1.075       .  S
C509        C514   1.397       .  A
C509        C510   1.412       .  A
C509        O515   1.309       .  A
C510        C511   1.401       .  A
C510        H521   1.077       .  S
C511        C520   1.385       .  A
C511        C512   1.392       .  A
C512        C513   1.404       .  A
C512        O518   1.306       .  A
C513        C514   1.396       .  A
C513        H522   1.079       .  S
C514        C517   1.383       .  A
O515        C516   1.313       .  A
C516        C517   1.380       .  A
C517        H523   1.083       .  S
O518        C519   1.307       .  A
C519        C520   1.385       .  A
C520        H524   1.082       .  S
O525        C541   1.279       .  A
O525       Zn531   2.023       .  S
C526        O542   1.277       .  A
C526        O539   1.275       .  A
C526        C568   1.476       .  S
O527       Cd534   2.070       .  S
O528       Cd537   2.083   1_565  S
O529        C543   1.278       .  A
O529       Cd533   2.092       .  S
O530       Cd533   2.088       .  S
Zn531       O542   2.056       .  S
Zn531       O544   2.037       .  S
Zn531       O536   1.930       .  S
O532       Cd537   2.082       .  S
Cd533       O535   2.112       .  S
Cd534       O538   2.059       .  S
Cd534       O547   2.049   1_545  S
O535        C545   1.279       .  A
O536       Cd537   1.997       .  S
Cd537       O539   2.087       .  S
O538        C545   1.272       .  A
C540        O544   1.276   1_554  A
C540        C632   1.464       .  S
C541        C572   1.475       .  S
C545        C549   1.471       .  S
C546        O547   1.271       .  A
C546        C776   1.452       .  S
O548        C564   1.272       .  A
O548       Zn554   1.996       .  S
C549        O565   1.271       .  A
C549        O562   1.275       .  A
O550        C563   1.271   1_565  A
O550       Cd557   2.062   1_565  S
O551        C569   1.275       .  A
O551       Cd560   2.079   1_565  S
O552        C566   1.281       .  A
O552       Cd556   2.091       .  S
O553        C564   1.280       .  A
O553       Cd556   2.148       .  S
Zn554       O565   2.021       .  S
Zn554       O567   1.980       .  S
Zn554       O559   1.912       .  S
O555        C566   1.275       .  A
O555       Cd560   2.055       .  S
Cd556       O558   2.088       .  S
Cd556       O559   2.023       .  S
Cd557       O561   2.107       .  S
Cd557       O570   2.073   1_545  S
Cd557       O559   2.019       .  S
O558        C568   1.277       .  A
O559       Cd560   2.000       .  S
Cd560       O562   2.099       .  S
O561        C568   1.280       .  A
C563        O567   1.272       .  A
C563        C641   1.449   1_545  S
C564        C595   1.493       .  S
C566        C890   1.453       .  S
C569        O570   1.273       .  A
C569        C799   1.464       .  S
O571        C587   1.266       .  A
O571       Zn577   1.981       .  S
C572        O588   1.266       .  A
O573       Cd580   2.055       .  S
O574        C592   1.281       .  A
O574       Cd583   2.124       .  S
O575        C589   1.278       .  A
O575       Cd579   2.073       .  S
O576        C587   1.277       .  A
O576       Cd579   2.110       .  S
Zn577       O588   1.962       .  S
Zn577       O590   1.952       .  S
Zn577       O582   1.920       .  S
O578       Cd583   2.093       .  S
Cd579       O581   2.102       .  S
Cd579       O582   2.001       .  S
Cd580       O584   2.044       .  S
Cd580       O593   2.065       .  S
O581        C591   1.279       .  A
Cd583       O585   2.123       .  S
C586        O590   1.262       .  A
C586        C633   1.446       .  S
C587        C615   1.465       .  S
C589        C819   1.464   1_556  S
C591        C911   1.463       .  S
C592        O593   1.272       .  A
C592        C610   1.475       .  S
O594        C610   1.273       .  A
O594       Zn600   2.033       .  S
C595        O611   1.271       .  A
C595        O608   1.282       .  A
O596        C609   1.272       .  A
O596       Cd603   2.082       .  S
O597        C615   1.276       .  A
O597       Cd606   2.086       .  S
O598        C612   1.272       .  A
O598       Cd602   2.043       .  S
O599        C610   1.276       .  A
O599       Cd602   2.100       .  S
Zn600       O611   1.990       .  S
Zn600       O613   1.977       .  S
Zn600       O605   1.912       .  S
O601        C612   1.279       .  A
O601       Cd606   2.081       .  S
Cd602       O604   2.088       .  S
Cd602       O605   2.000       .  S
Cd603       O607   2.079       .  S
Cd603       O616   2.078       .  S
Cd603       O605   2.024       .  S
O604        C614   1.275       .  A
O605       Cd606   2.031       .  S
Cd606       O608   2.156       .  S
O607        C614   1.274       .  A
C609        O613   1.272       .  A
C609        C655   1.454       .  S
C612        C842   1.448       .  S
C614        C934   1.470       .  S
C615        O616   1.276       .  A
O617       Zn623   1.978       .  S
C618        O634   1.275       .  A
C618        O631   1.265       .  A
C618       C1040   1.476       .  S
O619        C632   1.277   1_566  A
O619       Cd626   2.079       .  S
O620       Cd629   2.071       .  S
O621        C635   1.269   1_545  A
O621       Cd625   2.054       .  S
O622        C633   1.274       .  A
O622       Cd625   2.083       .  S
Zn623       O634   1.993       .  S
Zn623       O636   2.026       .  S
O624       Cd629   2.003       .  S
Cd625       O627   2.056       .  S
Cd625       O628   2.034       .  S
Cd626       O630   2.060       .  S
Cd626       O639   2.070       .  S
Cd626       O628   1.992   1_565  S
O627        C637   1.265       .  A
Cd629       O631   2.084   1_565  S
O630        C637   1.268   1_565  A
C635        C710   1.427       .  S
C637       C1027   1.463       .  S
C638        O639   1.277   1_554  A
C638        C679   1.455       .  S
O640        C656   1.254       .  A
O640       Zn646   1.941       .  S
C641        O657   1.256   1_565  A
C641        O654   1.273       .  A
O642        C655   1.279       .  A
O642       Cd649   2.132       .  S
O643        C661   1.273   1_565  A
O643       Cd652   2.107       .  S
O644        C658   1.286       .  A
O644       Cd648   2.105       .  S
O645        C656   1.279       .  A
O645       Cd648   2.097   1_545  S
Zn646       O657   1.947       .  S
Zn646       O659   1.939       .  S
Zn646       O651   1.848   1_545  S
O647        C658   1.284       .  A
O647       Cd652   2.068       .  S
Cd648       O650   2.112       .  S
Cd648       O651   1.941       .  S
Cd649       O653   2.058       .  S
Cd649       O662   2.066       .  S
Cd649       O651   1.946   1_545  S
O650        C660   1.281       .  A
O651       Cd652   2.001       .  S
Cd652       O654   2.108       .  S
O653        C660   1.276   1_545  A
C655        O659   1.263       .  A
C656       C1024   1.457       .  S
C658        C702   1.463       .  S
C660        C733   1.468       .  S
C661        O662   1.275       .  A
C661       C1043   1.476       .  S
O663        C679   1.272   1_556  A
O663       Zn669   1.994       .  S
C664        O680   1.273       .  A
C664        O677   1.274       .  A
C664        C706   1.471       .  S
O665       Cd672   2.123       .  S
O666        C684   1.273   1_556  A
O666       Cd675   2.049       .  S
O667       Cd671   2.090       .  S
O668       Cd671   2.087       .  S
Zn669       O680   2.030       .  S
Zn669       O682   2.012       .  S
Zn669       O674   1.923   1_556  S
O670        C681   1.274   1_556  A
O670       Cd675   2.070       .  S
Cd671       O673   2.092       .  S
Cd672       O676   2.082       .  S
Cd672       O685   2.086       .  S
O673        C683   1.277       .  A
O674       Cd675   1.995   1_554  S
Cd675       O677   2.089       .  S
O676        C683   1.275       .  A
C678        O682   1.276   1_554  A
C678        C724   1.486   1_554  S
C681        C821   1.463   1_554  S
C683        C687   1.468       .  S
C684        C914   1.454       .  S
O686        C702   1.271       .  A
O686       Zn692   2.003       .  S
C687        O703   1.270       .  A
C687        O700   1.275       .  A
O688        C701   1.276       .  A
O688       Cd695   2.098       .  S
O689        C707   1.276       .  A
O689       Cd698   2.070       .  S
O690        C704   1.277       .  A
O690       Cd694   2.083       .  S
O691        C702   1.274       .  A
O691       Cd694   2.083       .  S
Zn692       O703   2.005       .  S
Zn692       O705   1.983       .  S
Zn692       O697   1.919       .  S
O693        C704   1.273       .  A
O693       Cd698   2.056       .  S
Cd694       O696   2.081       .  S
Cd694       O697   2.007       .  S
Cd695       O699   2.101       .  S
Cd695       O708   2.096       .  S
Cd695       O697   2.020       .  S
O696        C706   1.276       .  A
O697       Cd698   1.996       .  S
Cd698       O700   2.097       .  S
O699        C706   1.278       .  A
C701        O705   1.272       .  A
C701        C747   1.469       .  S
C704        C844   1.456       .  S
C707        O708   1.279       .  A
C707        C937   1.466       .  S
O709        C725   1.265       .  A
O709       Zn715   1.977       .  S
C710        O726   1.262       .  A
O711       Cd718   2.142       .  S
O712        C730   1.278       .  A
O712       Cd721   2.099       .  S
O713        C727   1.276       .  A
O713       Cd717   2.087   1_545  S
O714        C725   1.280       .  A
O714       Cd717   2.131       .  S
Zn715       O726   1.922       .  S
Zn715       O728   1.983       .  S
Zn715       O720   1.913       .  S
O716       Cd721   2.075   1_545  S
Cd717       O719   2.069       .  S
Cd717       O720   1.998       .  S
Cd718       O722   2.064       .  S
Cd718       O731   2.079       .  S
O719        C729   1.278   1_556  A
Cd721       O723   2.052       .  S
C724        O728   1.269       .  A
C725        C753   1.472       .  S
C727        C865   1.467       .  S
C729        C773   1.450       .  S
C730        O731   1.274       .  A
C730        C748   1.471       .  S
O732        C748   1.270       .  A
O732       Zn738   2.004       .  S
C733        O749   1.271       .  A
C733        O746   1.276       .  A
O734        C747   1.278       .  A
O734       Cd741   2.104       .  S
O735        C753   1.277       .  A
O735       Cd744   2.091       .  S
O736        C750   1.278       .  A
O736       Cd740   2.078   1_545  S
O737        C748   1.278       .  A
O737       Cd740   2.111       .  S
Zn738       O749   2.002       .  S
Zn738       O751   1.977       .  S
Zn738       O743   1.918       .  S
O739        C750   1.274       .  A
O739       Cd744   2.070   1_545  S
Cd740       O742   2.100       .  S
Cd740       O743   1.993       .  S
Cd741       O745   2.082       .  S
Cd741       O754   2.095       .  S
Cd741       O743   2.014       .  S
O742        C752   1.281       .  A
O743       Cd744   2.003       .  S
Cd744       O746   2.100       .  S
O745        C752   1.276       .  A
C747        O751   1.272       .  A
C750        C888   1.458       .  S
C752        C796   1.470       .  S
C753        O754   1.277       .  A
O755        C771   1.278       .  A
O755       Zn761   2.007       .  S
C756        O772   1.279       .  A
C756        O769   1.279       .  A
C756        C798   1.489       .  S
O757       Cd764   2.119       .  S
O758        C776   1.275       .  A
O758       Cd767   2.050       .  S
O759        C773   1.264   1_556  A
O759       Cd763   2.008   1_455  S
O760       Cd763   2.028       .  S
Zn761       O772   2.067       .  S
Zn761       O774   1.982       .  S
Zn761       O766   1.905       .  S
O762       Cd767   2.105   1_455  S
Cd763       O765   2.049       .  S
Cd764       O768   2.115       .  S
Cd764       O777   2.089       .  S
O765        C775   1.267       .  A
O766       Cd767   1.982       .  S
Cd767       O769   2.114       .  S
O768        C775   1.279       .  A
C770        O774   1.271       .  A
C770        C816   1.477       .  S
C771        C957   1.448       .  S
C775        C779   1.469       .  S
O778        C794   1.275       .  A
O778       Zn784   2.049       .  S
C779        O795   1.272       .  A
C779        O792   1.276       .  A
O780        C793   1.284       .  A
O780       Cd787   2.135       .  S
O781        C799   1.270       .  A
O781       Cd790   2.046       .  S
O782        C796   1.279       .  A
O782       Cd786   2.100   1_455  S
O783        C794   1.278       .  A
O783       Cd786   2.083       .  S
Zn784       O795   2.019       .  S
Zn784       O797   1.974       .  S
Zn784       O789   1.953       .  S
O785        C796   1.275       .  A
O785       Cd790   2.070   1_455  S
Cd786       O788   2.096       .  S
Cd786       O789   1.999       .  S
Cd787       O791   2.129       .  S
Cd787       O800   2.115       .  S
Cd787       O789   2.026       .  S
O788        C798   1.277       .  A
O789       Cd790   1.997       .  S
Cd790       O792   2.094       .  S
O791        C798   1.283       .  A
C793        O797   1.269       .  A
C793        C839   1.478       .  S
C794        C983   1.476       .  S
C799        O800   1.282       .  A
O801        C817   1.276       .  A
O801       Zn807   2.037       .  S
C802        O818   1.277       .  A
C802        C959   1.473       .  S
O803       Cd810   2.107       .  S
O804        C822   1.278       .  A
O804       Cd813   2.101       .  S
O805       Cd809   2.065       .  S
O806        C817   1.274       .  A
O806       Cd809   2.075       .  S
Zn807       O818   2.070       .  S
Zn807       O820   2.005       .  S
Zn807       O812   1.955       .  S
O808        C819   1.275   1_556  A
O808       Cd813   2.085       .  S
Cd809       O811   2.052       .  S
Cd809       O812   1.993       .  S
Cd810       O814   2.102       .  S
Cd810       O823   2.104       .  S
Cd813       O815   2.058       .  S
O814        C821   1.279       .  A
C816        O820   1.275       .  A
C817        C845   1.467       .  S
C822        O823   1.279       .  A
C822        C840   1.480       .  S
O824        C840   1.278       .  A
O824       Zn830   2.067       .  S
C825        O841   1.276       .  A
C825        O838   1.264       .  A
C825        C980   1.438       .  S
O826        C839   1.274       .  A
O826       Cd833   2.090       .  S
O827        C845   1.269       .  A
O827       Cd836   2.048       .  S
O828        C842   1.276       .  A
O828       Cd832   2.091       .  S
O829        C840   1.274       .  A
O829       Cd832   2.084       .  S
Zn830       O841   2.019       .  S
Zn830       O843   2.029       .  S
Zn830       O835   1.929       .  S
O831        C842   1.265       .  A
O831       Cd836   2.015       .  S
Cd832       O834   2.057       .  S
Cd832       O835   1.993       .  S
Cd833       O837   2.088       .  S
Cd833       O846   2.109       .  S
Cd833       O835   2.019       .  S
O834        C844   1.275       .  A
O835       Cd836   1.994       .  S
Cd836       O838   2.016       .  S
O837        C844   1.280       .  A
C839        O843   1.279       .  A
C845        O846   1.277       .  A
O847        C863   1.276       .  A
O847       Zn853   2.038       .  S
C848        O861   1.281   1_554  A
C848        C909   1.483   1_554  S
O849        C862   1.283   1_556  A
O849       Cd856   2.102       .  S
O850        C868   1.280       .  A
O850       Cd859   2.110       .  S
O851       Cd855   2.049       .  S
O852        C863   1.273       .  A
O852       Cd855   2.073       .  S
Zn853       O864   2.003       .  S
Zn853       O866   2.071       .  S
O854        C865   1.281       .  A
O854       Cd859   2.114       .  S
Cd855       O857   2.051   1_455  S
Cd856       O860   2.119   1_455  S
Cd856       O869   2.126       .  S
Cd856       O858   2.007       .  S
O858       Cd859   2.026       .  S
Cd859       O861   2.121       .  S
O860        C867   1.282       .  A
C862        C954   1.489   1_554  S
C863        C891   1.466       .  S
C868        O869   1.282       .  A
C868        C886   1.491       .  S
O870        C886   1.283       .  A
O870       Zn876   2.092       .  S
C871        O887   1.277       .  A
C871        O884   1.276       .  A
C871        C932   1.480       .  S
O872        C885   1.265       .  A
O872       Cd879   2.029       .  S
O873        C891   1.276       .  A
O873       Cd882   2.100       .  S
O874        C888   1.275       .  A
O874       Cd878   2.052       .  S
O875        C886   1.278       .  A
O875       Cd878   2.099       .  S
Zn876       O887   2.021       .  S
Zn876       O889   2.019       .  S
Zn876       O881   1.913       .  S
O877        C888   1.283       .  A
O877       Cd882   2.104       .  S
Cd878       O880   2.093   1_455  S
Cd878       O881   1.986       .  S
Cd879       O883   2.027   1_455  S
Cd879       O892   2.050       .  S
Cd879       O881   1.996       .  S
O880        C890   1.276       .  A
O881       Cd882   2.014       .  S
Cd882       O884   2.103       .  S
O883        C890   1.267       .  A
C885        O889   1.279       .  A
C885        C978   1.448       .  S
C891        O892   1.269       .  A
O893       Zn899   2.007       .  S
C894        O910   1.281       .  A
C894        O907   1.278       .  A
C894        C936   1.491       .  S
O895        C908   1.269       .  A
O895       Cd902   2.053       .  S
O896       Cd905   2.092       .  S
O897        C911   1.281       .  A
O897       Cd901   2.093       .  S
O898        C909   1.280       .  A
O898       Cd901   2.120       .  S
Zn899       O910   2.086       .  S
Zn899       O912   2.017       .  S
O900       Cd905   2.068       .  S
Cd901       O903   2.098       .  S
Cd901       O904   2.013       .  S
Cd902       O906   2.058       .  S
Cd902       O915   2.034       .  S
Cd902       O904   1.999       .  S
O903        C913   1.277       .  A
Cd905       O907   2.104       .  S
O906        C913   1.270       .  A
C908        C940   1.454       .  S
C913        C917   1.463       .  S
C914        O915   1.268   1_554  A
O916        C932   1.270       .  A
O916       Zn922   1.977       .  S
C917        O933   1.268       .  A
C917        O930   1.276       .  A
O918        C931   1.281       .  A
O918       Cd925   2.088       .  S
O919        C937   1.274       .  A
O919       Cd928   2.063       .  S
O920        C934   1.280       .  A
O920       Cd924   2.107       .  S
O921        C932   1.282       .  A
O921       Cd924   2.130       .  S
Zn922       O933   1.990       .  S
Zn922       O935   2.032       .  S
Zn922       O927   1.950       .  S
O923        C934   1.275       .  A
O923       Cd928   2.072       .  S
Cd924       O926   2.114       .  S
Cd924       O927   2.023       .  S
Cd925       O929   2.126       .  S
Cd925       O938   2.105       .  S
Cd925       O927   2.007       .  S
O926        C936   1.281       .  A
O927       Cd928   1.998       .  S
Cd928       O930   2.093       .  S
O929        C936   1.282       .  A
C931        O935   1.270       .  A
C931        C977   1.469       .  S
C937        O938   1.280       .  A
O939        C955   1.269   1_455  A
O939       Zn945   1.997       .  S
C940        O956   1.268       .  A
O941       Cd948   2.199       .  S
O942        C960   1.255       .  A
O942       Cd951   1.957       .  S
O943       Cd947   1.997       .  S
O944        C955   1.265       .  A
O944       Cd947   2.037       .  S
Zn945       O956   1.970       .  S
Zn945       O958   1.964       .  S
Zn945       O950   1.888       .  S
O946        C957   1.275   1_455  A
O946       Cd951   2.077       .  S
Cd947       O949   1.998       .  S
Cd947       O950   1.935   1_655  S
Cd948       O952   2.184   1_455  S
Cd948       O961   2.157       .  S
Cd951       O953   2.066       .  S
O952        C959   1.290       .  A
C954        O958   1.269       .  A
C955        C992   1.473       .  S
C960        O961   1.293       .  A
C960       C1011   1.452       .  S
O962        C978   1.264       .  A
O962       Zn968   1.966       .  S
C963        O979   1.268       .  A
C963        O976   1.267   1_455  A
C963       C1008   1.470       .  S
O964        C977   1.291       .  A
O964       Cd971   2.165       .  S
O965        C983   1.272       .  A
O965       Cd974   2.043       .  S
O966        C980   1.275       .  A
O966       Cd970   2.073       .  S
O967        C978   1.270   1_655  A
O967       Cd970   2.044       .  S
Zn968       O979   2.010       .  S
Zn968       O981   1.941       .  S
Zn968       O973   1.897   1_455  S
O969        C980   1.268       .  A
O969       Cd974   2.008       .  S
Cd970       O972   1.989       .  S
Cd970       O973   1.977       .  S
Cd971       O975   2.148   1_455  S
Cd971       O984   2.153       .  S
Cd971       O973   2.002   1_455  S
O972        C982   1.246       .  A
O973       Cd974   1.962       .  S
Cd974       O976   2.046       .  S
O975        C982   1.282       .  A
C977        O981   1.266       .  A
C982        C995   1.462       .  S
C983        O984   1.286   1_655  A
C985        C990   1.408       .  A
C985        C986   1.402       .  A
C985        O991   1.320       .  A
C986        C987   1.406       .  A
C986        H997   1.082       .  S
C987        C996   1.368       .  A
C987        C988   1.410       .  A
C988        C989   1.396       .  A
C988        O994   1.321       .  A
C989        C990   1.401       .  A
C989        H998   1.099       .  S
C990        C993   1.364       .  A
O991        C992   1.317       .  A
C992        C993   1.376       .  A
C993        H999   1.095       .  S
O994        C995   1.315       .  A
C995        C996   1.375       .  A
C996       H1000   1.073       .  S
C1001      C1006   1.404       .  A
C1001      C1002   1.400       .  A
C1001      O1007   1.319       .  A
C1002      C1003   1.404       .  A
C1002      H1013   1.085       .  S
C1003      C1012   1.366       .  A
C1003      C1004   1.410       .  A
C1004      C1005   1.395       .  A
C1004      O1010   1.319       .  A
C1005      C1006   1.398       .  A
C1005      H1014   1.086       .  S
C1006      C1009   1.362       .  A
O1007      C1008   1.317       .  A
C1008      C1009   1.371       .  A
C1009      H1015   1.086       .  S
O1010      C1011   1.314       .  A
C1011      C1012   1.372       .  A
C1012      H1016   1.084       .  S
C1017      C1022   1.413       .  A
C1017      C1018   1.398       .  A
C1017      O1023   1.318       .  A
C1018      C1019   1.402       .  A
C1018      H1029   1.076       .  S
C1019      C1028   1.367       .  A
C1019      C1020   1.401       .  A
C1020      C1021   1.396       .  A
C1020      O1026   1.315       .  A
C1021      C1022   1.400       .  A
C1021      H1030   1.080       .  S
C1022      C1025   1.364       .  A
O1023      C1024   1.312       .  A
C1024      C1025   1.372       .  A
C1025      H1031   1.084       .  S
O1026      C1027   1.316       .  A
C1027      C1028   1.375       .  A
C1028      H1032   1.076       .  S
C1033      C1038   1.396       .  A
C1033      C1034   1.414       .  A
C1033      O1039   1.309       .  A
C1034      C1035   1.401       .  A
C1034      H1045   1.077       .  S
C1035      C1044   1.385       .  A
C1035      C1036   1.391       .  A
C1036      C1037   1.404       .  A
C1036      O1042   1.306       .  A
C1037      C1038   1.395       .  A
C1037      H1046   1.080       .  S
C1038      C1041   1.383       .  A
O1039      C1040   1.313       .  A
C1040      C1041   1.380       .  A
C1041      H1047   1.083       .  S
O1042      C1043   1.308       .  A
C1043      C1044   1.385       .  A
C1044      H1048   1.082       .  S
