geometry optimzed in LAMMPS
_audit_creation_date              2020-11-30 
_audit_creation_method            'lammps2cif' 
_symmetry_space_group_name_H-M    'P1' 
_symmetry_Int_Tables_number       1 
_symmetry_cell_setting            triclinic 
loop_ 
_symmetry_equiv_pos_as_xyz 
  x,y,z 
_cell_length_a                    36.08664927 
_cell_length_b                    33.28382749109229 
_cell_length_c                    33.97712348579365 
_cell_angle_alpha                 89.63921005222466 
_cell_angle_beta                  90.54395281773408 
_cell_angle_gamma                 89.9849312900849 
loop_ 
_atom_site_label 
_atom_site_type_symbol 
_atom_site_fract_x 
_atom_site_fract_y 
_atom_site_fract_z 
_atom_site_charge 
O1          O  0.48913003  0.47913256  0.09206965    -0.79400
O2          O  0.54383084  0.45999342  0.44239799    -0.79400
O3          O  0.42113379  0.45318383  0.48302699    -0.79400
O4          O  0.55960764  0.46600281  0.01704636    -0.79400
O5          O  0.47517159  0.43570367  0.46292385    -0.79500
O6          O  0.55852845  0.50118040  0.07066086    -0.79400
O7          O  0.59223330  0.49939164  0.45344074    -0.79400
O8          O  0.48208791  0.44142551  0.04076112    -0.79400
C9          C  0.48206315  0.44503248  0.07754019     1.10300
C10         C  0.57694134  0.47097495  0.43420456     1.10200
C11         C  0.44097427  0.42850458  0.46550045     1.10300
C12         C  0.56971851  0.47061191  0.05233365     1.10200
O13         O  0.53123320  0.57922487  0.04777936    -0.79400
O14         O  0.44438538  0.51357682  0.43482775    -0.79500
O15         O  0.42882298  0.50296131  0.06255751    -0.79400
O16         O  0.54552031  0.56315152  0.45771485    -0.79400
O17         O  0.51255659  0.53568423  0.41290227    -0.79500
O18         O  0.46235010  0.55727493  0.06881533    -0.79400
O19         O  0.57899423  0.55099415  0.01983151    -0.79400
O20         O  0.42906334  0.53579135  0.49262613    -0.79400
Co21       Co  0.50973970  0.52880420  0.06559997     1.51500
Co22       Co  0.49428527  0.48881088  0.44470152     1.51700
Co23       Co  0.45165322  0.48774287  0.51582804     1.51600
Co24       Co  0.54802963  0.51504063  0.98544804     1.51500
O25         O  0.49853218  0.51814634  0.00672221    -1.41300
C26         C  0.56471763  0.58030781  0.03810286     1.10200
C27         C  0.42562597  0.53708933  0.45587033     1.10300
C28         C  0.43391695  0.53730625  0.07758033     1.10200
C29         C  0.53329037  0.56410572  0.42331714     1.10200
O30         O  0.52245363  0.96968471  0.08439967    -0.79400
O31         O  0.51283557  0.04844009  0.41736167    -0.79400
O32         O  0.52243648  0.91159333  0.45898708    -0.79400
O33         O  0.54821380  0.07468671  0.04795843    -0.79400
O34         O  0.53595504  0.97213377  0.43643056    -0.79500
O35         O  0.51262353  0.05038778  0.09469829    -0.79400
O36         O  0.55012648  0.06541789  0.46487410    -0.79400
O37         O  0.54820909  0.94827696  0.02964943    -0.79400
C38         C  0.54914682  0.95222182  0.06663343     1.10300
C39         C  0.54243749  0.06566779  0.42881911     1.10200
C40         C  0.54146864  0.93378686  0.43638054     1.10300
C41         C  0.54127497  0.06978455  0.08389625     1.10200
O42         O  0.43850352  0.04416786  0.05651454    -0.79400
O43         O  0.46774107  0.98314481  0.40091110    -0.79500
O44         O  0.47807542  0.91652783  0.03855788    -0.79400
O45         O  0.47149216  0.09125698  0.46127877    -0.79400
O46         O  0.44159839  0.03463921  0.45553738    -0.79500
O47         O  0.44433856  0.96749429  0.04931568    -0.79400
O48         O  0.47084019  0.09849931  0.04767992    -0.79400
O49         O  0.45465003  0.95067453  0.45549204    -0.79400
Co50       Co  0.48083300  0.00837085  0.06708477     1.51500
Co51       Co  0.48770099  0.00380493  0.44901055     1.51700
Co52       Co  0.50083684  0.95506374  0.00105254     1.51600
Co53       Co  0.50886473  0.07918402  0.00795021     1.51500
O54         O  0.50179866  0.01729756  0.01121673    -1.41300
C55         C  0.44096419  0.08160403  0.05801404     1.10200
C56         C  0.44721378  0.95821226  0.41870618     1.10300
C57         C  0.44963070  0.93047068  0.05392127     1.10200
C58         C  0.44278318  0.07205444  0.44985325     1.10200
O59         O  0.93509130  0.55853459  0.03487462    -0.79400
O60         O  0.06860955  0.53675252  0.46149478    -0.79400
O61         O  0.01824799  0.55368180  0.06607288    -0.79400
O62         O  0.95558781  0.51164595  0.41720847    -0.79400
O63         O  0.06825564  0.54653949  0.03329079    -0.79500
O64         O  0.93673294  0.55218850  0.46282191    -0.79400
O65         O  0.01613616  0.54886345  0.43500417    -0.79400
O66         O  0.95723952  0.52433525  0.08444942    -0.79400
C67         C  0.93930437  0.55482252  0.07146163     1.10300
C68         C  0.04974667  0.55718711  0.43730408     1.10200
C69         C  0.05003211  0.56569005  0.05822506     1.10300
C70         C  0.93683727  0.54223331  0.42718399     1.10200
O71         O  0.92310891  0.46653129  0.46805177    -0.79400
O72         O  0.05214765  0.46010142  0.04522672    -0.79500
O73         O  0.97594150  0.44486324  0.04888012    -0.79400
O74         O  0.02749568  0.47216674  0.40832020    -0.79400
O75         O  0.04999238  0.45143964  0.46556135    -0.79500
O76         O  0.92234445  0.47311356  0.04228549    -0.79400
O77         O  0.97771503  0.43984537  0.46085876    -0.79400
O78         O  0.02322272  0.47970390  0.09984857    -0.79400
Co79       Co  0.93353363  0.51275126  0.99867576     1.51500
Co80       Co  0.05199599  0.50109493  0.99861560     1.51700
Co81       Co  0.99950686  0.49929796  0.05381314     1.51600
Co82       Co  0.99949280  0.49428006  0.45090615     1.51500
O83         O  0.99111991  0.51399864  0.99832018    -1.41300
C84         C  0.94285818  0.43680210  0.45791206     1.10200
C85         C  0.04824566  0.45910290  0.08318769     1.10300
C86         C  0.94150757  0.44409616  0.05540263     1.10200
C87         C  0.05083192  0.45063560  0.42749883     1.10200
C88         C  0.26361279  0.25376202  0.28794081     0.46200
H89         H  0.26009778  0.24622420  0.31955907    -0.02800
C90         C  0.26930762  0.27336755  0.21488899     0.46200
H91         H  0.27197110  0.28389204  0.18438160    -0.02800
C92         C  0.29776926  0.27946935  0.28065404    -0.16500
C93         C  0.27119053  0.21691259  0.26106645    -0.16300
C94         C  0.23014959  0.27834000  0.27179903    -0.16700
C95         C  0.30142200  0.29038319  0.24144629    -0.16600
C96         C  0.26952583  0.22666313  0.22096483    -0.16200
C97         C  0.23331751  0.28872925  0.23323225    -0.16500
C98         C  0.75663503  0.25693803  0.21066316     0.46200
H99         H  0.75848826  0.25329044  0.17885853    -0.02800
C100        C  0.74799878  0.27078546  0.28457141     0.46200
H101        H  0.74407981  0.27643121  0.31640286    -0.02800
C102        C  0.73494572  0.29585784  0.21890776    -0.16500
C103        C  0.73514428  0.22243009  0.23223604    -0.16300
C104        C  0.79481765  0.26274417  0.23142294    -0.16700
C105        C  0.73007848  0.30342882  0.25833153    -0.16600
C106        C  0.72829424  0.23159546  0.27125316    -0.16200
C107        C  0.78976245  0.26977995  0.27175911    -0.16500
C108        C  0.25904044  0.73672770  0.21629362     0.46200
H109        H  0.26617297  0.73241259  0.18521232    -0.02800
C110        C  0.24255899  0.75098246  0.28843931     0.46200
H111        H  0.23388676  0.75961366  0.31787510    -0.02800
C112        C  0.27876303  0.70818917  0.24620989    -0.16500
C113        C  0.27080436  0.77907837  0.22948066    -0.16300
C114        C  0.21759229  0.73045849  0.22376225    -0.16700
C115        C  0.27171531  0.71683402  0.28552872    -0.16600
C116        C  0.26154499  0.78747551  0.26786584    -0.16200
C117        C  0.20875858  0.73655054  0.26277719    -0.16500
C118        C  0.72010223  0.73080433  0.27876404     0.46200
H119        H  0.71178222  0.72147363  0.30799442    -0.02800
C120        C  0.74093703  0.75052658  0.20895879     0.46200
H121        H  0.75084138  0.75926554  0.17960585    -0.02800
C122        C  0.69443374  0.71373331  0.24543542    -0.16500
C123        C  0.71984263  0.77704269  0.27225116    -0.16300
C124        C  0.75943065  0.71630746  0.27030145    -0.16700
C125        C  0.70557567  0.72559260  0.20816147    -0.16600
C126        C  0.72841586  0.78732934  0.23353373    -0.16200
C127        C  0.76978467  0.72459155  0.23230301    -0.16500
C128        C  0.08592539  0.63624647  0.13861792    -0.11200
C129        C  0.10572739  0.66448152  0.11653772     0.11400
C130        C  0.10399196  0.66278066  0.07485775    -0.03000
C131        C  0.08459050  0.63080045  0.05674353    -0.05700
C132        C  0.06643416  0.60108698  0.07900488    -0.16500
C133        C  0.06635533  0.60449448  0.12077578     0.02400
C134        C  0.13426433  0.68849806  0.13825394     0.12400
C135        C  0.12238376  0.69485813  0.04985658     0.63000
H136        H  0.08407268  0.62830791  0.02496817     0.12400
C137        C  0.04812468  0.57327355  0.14691720     0.55100
H138        H  0.08800494  0.63789975  0.17039464     0.08200
C139        C  0.12628161  0.71941305  0.16541621    -0.05600
C140        C  0.15466676  0.73296173  0.19115711    -0.06300
C141        C  0.19032639  0.71544588  0.19236908    -0.15900
C142        C  0.19762907  0.68375338  0.16490123    -0.01500
C143        C  0.16994727  0.67260746  0.13771134    -0.09000
C144        C  0.08845373  0.73878253  0.16888033     0.65200
H145        H  0.14842809  0.75691202  0.21153908     0.10700
C146        C  0.23148483  0.65680181  0.16663574     0.63600
H147        H  0.17502485  0.64844232  0.11722810     0.08000
F148        F  0.01049071  0.57260986  0.13961016    -0.19400
F149        F  0.05329211  0.58127246  0.18653804    -0.15600
F150        F  0.06311178  0.53592710  0.13957441    -0.19100
F151        F  0.10979908  0.73230428  0.06105942    -0.22500
F152        F  0.11437291  0.69006358  0.01022179    -0.24000
F153        F  0.16041277  0.69336842  0.05473941    -0.18000
F154        F  0.22652380  0.62140442  0.14598525    -0.20500
F155        F  0.23784048  0.64585764  0.20495424    -0.21600
F156        F  0.26188177  0.67567795  0.15070270    -0.18800
F157        F  0.09185239  0.77986978  0.16373754    -0.18900
F158        F  0.07464329  0.73120357  0.20603048    -0.22700
F159        F  0.06320049  0.72490044  0.14131608    -0.24300
C160        C  0.07203236  0.63138522  0.35194938    -0.11200
C161        C  0.10923688  0.64054362  0.36002494     0.11400
C162        C  0.12547558  0.62531882  0.39523864    -0.03000
C163        C  0.10493614  0.59902005  0.41951582    -0.05700
C164        C  0.06793652  0.58838268  0.41101700    -0.16500
C165        C  0.05079986  0.60623750  0.37697270     0.02400
C166        C  0.13064326  0.66587827  0.33107271     0.12400
C167        C  0.16413832  0.63781413  0.40769523     0.63000
H168        H  0.11788655  0.58660893  0.44575397     0.12400
C169        C  0.01028159  0.59952281  0.36683111     0.55100
H170        H  0.05977083  0.64412355  0.32547335     0.08200
C171        C  0.15009304  0.64861051  0.29931025    -0.05600
C172        C  0.17285945  0.67337779  0.27579897    -0.06300
C173        C  0.17654271  0.71505114  0.28207884    -0.15900
C174        C  0.15378293  0.73285876  0.31111180    -0.01500
C175        C  0.13175110  0.70789467  0.33548932    -0.09000
C176        C  0.14709696  0.60401802  0.29044818     0.65200
H177        H  0.18941042  0.65972526  0.25331219     0.10700
C178        C  0.15171975  0.77775541  0.31775387     0.63600
H179        H  0.11562757  0.72136572  0.35870828     0.08000
F180        F  0.99926694  0.62070792  0.33351563    -0.19400
F181        F  0.98883017  0.61252684  0.39770886    -0.15600
F182        F  0.00390658  0.55922549  0.35987559    -0.19100
F183        F  0.16476013  0.67900148  0.41251006    -0.22500
F184        F  0.18940192  0.62692380  0.37938355    -0.24000
F185        F  0.17497131  0.62015012  0.44296474    -0.18000
F186        F  0.11507479  0.78986494  0.31548913    -0.20500
F187        F  0.17126960  0.79969510  0.29021456    -0.21600
F188        F  0.16550257  0.78647191  0.35483421    -0.18800
F189        F  0.16847997  0.59322298  0.25856741    -0.18900
F190        F  0.11065451  0.59446844  0.28180496    -0.22700
F191        F  0.15877697  0.58154410  0.32256900    -0.24300
C192        C  0.12953989  0.37647024  0.40285929    -0.11200
C193        C  0.12320746  0.37000982  0.36271502     0.11400
C194        C  0.09265070  0.38904571  0.34407509    -0.03000
C195        C  0.07007732  0.41506525  0.36610643    -0.05700
C196        C  0.07633010  0.42209995  0.40649042    -0.16500
C197        C  0.10741626  0.40286838  0.42500453     0.02400
C198        C  0.15102699  0.34599036  0.34040033     0.12400
C199        C  0.08369527  0.38148547  0.30110586     0.63000
H200        H  0.04728588  0.43033163  0.35155028     0.12400
C201        C  0.11904026  0.41146157  0.46720084     0.55100
H202        H  0.15307729  0.36146118  0.41642392     0.08200
C203        C  0.18480301  0.36328403  0.32788958    -0.05600
C204        C  0.20957332  0.33963567  0.30622137    -0.06300
C205        C  0.20259324  0.29908646  0.29750889    -0.15900
C206        C  0.16865434  0.28180088  0.30983298    -0.01500
C207        C  0.14365860  0.30551838  0.33156823    -0.09000
C208        C  0.19447614  0.40677304  0.33699895     0.65200
H209        H  0.23479340  0.35292406  0.29532645     0.10700
C210        C  0.15657654  0.23943065  0.29978211     0.63600
H211        H  0.11776271  0.29244142  0.34125241     0.08000
F212        F  0.12299071  0.45248036  0.47223291    -0.19400
F213        F  0.15268427  0.39376692  0.47686524    -0.15600
F214        F  0.09285773  0.39653384  0.49289949    -0.19100
F215        F  0.07508319  0.34136621  0.29618223    -0.22500
F216        F  0.11375163  0.39119047  0.27795939    -0.24000
F217        F  0.05371812  0.40410431  0.28824715    -0.18000
F218        F  0.18246438  0.21848149  0.27835385    -0.20500
F219        F  0.12406097  0.24117295  0.27792686    -0.21600
F220        F  0.15005081  0.21828446  0.33418349    -0.18800
F221        F  0.16753824  0.43207931  0.32164995    -0.18900
F222        F  0.22818017  0.41792743  0.32120501    -0.22700
F223        F  0.19680693  0.41216800  0.37723142    -0.24300
C224        C  0.17193807  0.37279408  0.19057947    -0.11200
C225        C  0.14222145  0.35112780  0.17440643     0.11400
C226        C  0.14295826  0.30847231  0.17738051    -0.03000
C227        C  0.17189631  0.29014601  0.19925819    -0.05700
C228        C  0.20352502  0.31167624  0.21143285    -0.16500
C229        C  0.20392856  0.35394896  0.20510068     0.02400
C230        C  0.11521118  0.37536959  0.15035708     0.12400
C231        C  0.11542549  0.28065771  0.15736724     0.63000
H232        H  0.17115935  0.25793902  0.20423730     0.12400
C233        C  0.23697786  0.38121405  0.21046670     0.55100
H234        H  0.17174719  0.40533924  0.18814471     0.08200
C235        C  0.07665465  0.37941682  0.15818785    -0.05600
C236        C  0.05531740  0.40584598  0.13454068    -0.06300
C237        C  0.07173619  0.43117189  0.10651480    -0.15900
C238        C  0.11059577  0.42991424  0.10151567    -0.01500
C239        C  0.13095531  0.40001164  0.12118038    -0.09000
C240        C  0.05647659  0.35793026  0.19107306     0.65200
H241        H  0.02564277  0.40775170  0.13899917     0.10700
C242        C  0.13118766  0.46233270  0.07881030     0.63600
H243        H  0.16039305  0.39739312  0.11573528     0.08000
F244        F  0.23041283  0.40801034  0.24049623    -0.19400
F245        F  0.24282169  0.40270969  0.17606382    -0.15600
F246        F  0.26869615  0.36043067  0.21844949    -0.19100
F247        F  0.09164429  0.30038393  0.13173668    -0.22500
F248        F  0.09478064  0.26096178  0.18563195    -0.24000
F249        F  0.13451553  0.25232149  0.13588267    -0.18000
F250        F  0.16925689  0.45866965  0.08295711    -0.20500
F251        F  0.12120919  0.49976298  0.09262354    -0.21600
F252        F  0.12277743  0.46019449  0.03937357    -0.18800
F253        F  0.03137704  0.33106097  0.17508649    -0.18900
F254        F  0.03717990  0.38577846  0.21288525    -0.22700
F255        F  0.07994098  0.33743693  0.21636324    -0.24300
C256        C  0.85171182  0.28974860  0.14037152    -0.11200
C257        C  0.87652483  0.31791342  0.15630708     0.11400
C258        C  0.88278120  0.31690431  0.19757836    -0.03000
C259        C  0.86155420  0.29028292  0.22116534    -0.05700
C260        C  0.83012675  0.27001021  0.20625008    -0.16500
C261        C  0.83074218  0.26370078  0.16466318     0.02400
C262        C  0.89418396  0.34887346  0.12970443     0.12400
C263        C  0.91004974  0.34553236  0.21702178     0.63000
H264        H  0.86953385  0.28591895  0.25132539     0.12400
C265        C  0.81552007  0.22614169  0.14535112     0.55100
H266        H  0.84932463  0.28728204  0.10865403     0.08200
C267        C  0.92627826  0.34178595  0.10684520    -0.05600
C268        C  0.94080919  0.37341765  0.08321684    -0.06300
C269        C  0.92394483  0.41165050  0.08075873    -0.15900
C270        C  0.89147810  0.41829698  0.10382592    -0.01500
C271        C  0.87747389  0.38675588  0.12747019    -0.09000
C272        C  0.94483902  0.30084833  0.10699990     0.65200
H273        H  0.96539336  0.36826433  0.06594760     0.10700
C274        C  0.87183665  0.45872510  0.10524708     0.63600
H275        H  0.85303890  0.39144746  0.14505518     0.08000
F276        F  0.80213821  0.19889860  0.17266933    -0.19400
F277        F  0.84370519  0.20727468  0.12521058    -0.15600
F278        F  0.78779859  0.23619515  0.11864429    -0.19100
F279        F  0.89732868  0.38451885  0.21283372    -0.22500
F280        F  0.94446157  0.34265583  0.19985996    -0.24000
F281        F  0.91433292  0.33742186  0.25679249    -0.18000
F282        F  0.85670000  0.46800846  0.06878125    -0.20500
F283        F  0.89662330  0.48816575  0.11649601    -0.21600
F284        F  0.84323157  0.45892609  0.13213774    -0.18800
F285        F  0.97622876  0.30050172  0.08388581    -0.18900
F286        F  0.92047923  0.27241243  0.09250771    -0.22700
F287        F  0.95526858  0.29006831  0.14482720    -0.24300
C288        C  0.91821353  0.34872707  0.38924818    -0.11200
C289        C  0.87966490  0.34851537  0.39253312     0.11400
C290        C  0.86312825  0.37049411  0.42325027    -0.03000
C291        C  0.88549318  0.39646524  0.44605955    -0.05700
C292        C  0.92383925  0.40098334  0.43941985    -0.16500
C293        C  0.94075079  0.37451644  0.41194657     0.02400
C294        C  0.85778331  0.32789354  0.36095779     0.12400
C295        C  0.82198739  0.36717852  0.43130575     0.63000
H296        H  0.87263947  0.41500447  0.46816143     0.12400
C297        C  0.98149751  0.37620110  0.40265446     0.55100
H298        H  0.93023713  0.33059758  0.36628207     0.08200
C299        C  0.85038230  0.34699528  0.32437129    -0.05600
C300        C  0.83099933  0.32558449  0.29502411    -0.06300
C301        C  0.81819801  0.28598336  0.30059686    -0.15900
C302        C  0.82759394  0.26636626  0.33666058    -0.01500
C303        C  0.84705426  0.28772673  0.36617743    -0.09000
C304        C  0.86192629  0.39031455  0.31668290     0.65200
H305        H  0.82520046  0.34001607  0.26717762     0.10700
C306        C  0.81897876  0.22279013  0.34542382     0.63600
H307        H  0.85415725  0.27273164  0.39364999     0.08000
F308        F  0.99219966  0.34614569  0.37713541    -0.19400
F309        F  0.00247763  0.37195485  0.43669182    -0.15600
F310        F  0.98833807  0.41251886  0.38463407    -0.19100
F311        F  0.81279825  0.32745664  0.43825046    -0.22500
F312        F  0.80194149  0.38122202  0.39933103    -0.24000
F313        F  0.81180204  0.38925916  0.46386850    -0.18000
F314        F  0.85158574  0.20275501  0.35445728    -0.20500
F315        F  0.80247544  0.20340369  0.31409786    -0.21600
F316        F  0.79584253  0.22056866  0.37755353    -0.18800
F317        F  0.85029719  0.40378593  0.27996567    -0.18900
F318        F  0.90006531  0.39368543  0.31851695    -0.22700
F319        F  0.84658137  0.41522350  0.34453565    -0.24300
C320        C  0.87524337  0.58112193  0.34254296    -0.11200
C321        C  0.86646598  0.61945457  0.35705043     0.11400
C322        C  0.88155957  0.63209647  0.39343190    -0.03000
C323        C  0.90671385  0.60684902  0.41277589    -0.05700
C324        C  0.91497144  0.56787890  0.39941023    -0.16500
C325        C  0.89871464  0.55446883  0.36365850     0.02400
C326        C  0.83982148  0.64462403  0.33467927     0.12400
C327        C  0.87159571  0.67089742  0.41438984     0.63000
H328        H  0.91891925  0.61749149  0.44007397     0.12400
C329        C  0.90449126  0.51203430  0.34879966     0.55100
H330        H  0.86265778  0.57190761  0.31497539     0.08200
C331        C  0.85035056  0.67948292  0.31366438    -0.05600
C332        C  0.82246045  0.70399661  0.29747743    -0.06300
C333        C  0.78455959  0.69376268  0.29890921    -0.15900
C334        C  0.77404334  0.66036112  0.32328226    -0.01500
C335        C  0.80227077  0.63600813  0.33960998    -0.09000
C336        C  0.89022184  0.69265205  0.30771114     0.65200
H337        H  0.83067378  0.73089442  0.28165546     0.10700
C338        C  0.73445555  0.65051637  0.33508480     0.63600
H339        H  0.79539782  0.61042049  0.35799160     0.08000
F340        F  0.88414764  0.50471873  0.31484287    -0.19400
F341        F  0.89342099  0.48462122  0.37712794    -0.15600
F342        F  0.94148782  0.50604109  0.34043937    -0.19100
F343        F  0.84426387  0.69313606  0.39572341    -0.22500
F344        F  0.90292785  0.69457853  0.41778871    -0.24000
F345        F  0.85908925  0.66169677  0.45176036    -0.18000
F346        F  0.73202369  0.61414706  0.35493190    -0.20500
F347        F  0.71169544  0.64760453  0.30269843    -0.21600
F348        F  0.72149848  0.67974697  0.36018639    -0.18800
F349        F  0.89621721  0.69915980  0.26805355    -0.18900
F350        F  0.91596652  0.66475583  0.32079559    -0.22700
F351        F  0.89623507  0.72824697  0.32754479    -0.24300
C352        C  0.88689975  0.64669564  0.11183062    -0.11200
C353        C  0.88981912  0.64031460  0.15242472     0.11400
C354        C  0.91184214  0.60789754  0.16666554    -0.03000
C355        C  0.92727869  0.58083234  0.13940768    -0.05700
C356        C  0.92314580  0.58606582  0.09839869    -0.16500
C357        C  0.90367266  0.62102367  0.08439613     0.02400
C358        C  0.86374323  0.66336597  0.17786399     0.12400
C359        C  0.92004391  0.60262874  0.21037054     0.63000
H360        H  0.94233722  0.55485402  0.15023921     0.12400
C361        C  0.89937453  0.63176171  0.04091570     0.55100
H362        H  0.86976872  0.67148615  0.10173841     0.08200
C363        C  0.86233522  0.70600266  0.18014933    -0.05600
C364        C  0.83083193  0.72468160  0.19676750    -0.06300
C365        C  0.80132166  0.70231046  0.21256885    -0.15900
C366        C  0.80360427  0.65931043  0.21045279    -0.01500
C367        C  0.83436966  0.64132847  0.19307182    -0.09000
C368        C  0.89330965  0.73297623  0.16587556     0.65200
H369        H  0.82978857  0.75715288  0.19837937     0.10700
C370        C  0.77428713  0.62958311  0.22315381     0.63600
H371        H  0.83440161  0.60897906  0.18921385     0.08000
F372        F  0.93388869  0.63509618  0.02380875    -0.19400
F373        F  0.88146950  0.66818464  0.03525929    -0.15600
F374        F  0.87858580  0.60272431  0.02188561    -0.19100
F375        F  0.88845424  0.59177066  0.23043309    -0.22500
F376        F  0.93343863  0.63832439  0.22544687    -0.24000
F377        F  0.94653578  0.57324428  0.21726029    -0.18000
F378        F  0.76391786  0.60600506  0.19148105    -0.20500
F379        F  0.74317714  0.64758694  0.23676975    -0.21600
F380        F  0.78855047  0.60491337  0.25250018    -0.18800
F381        F  0.90282112  0.75983119  0.19520818    -0.18900
F382        F  0.88124016  0.75429187  0.13313265    -0.22700
F383        F  0.92489919  0.71182162  0.15624830    -0.24300
C384        C  0.63673633  0.18176909  0.30690184    -0.11200
C385        C  0.64706699  0.16671453  0.34371941     0.11400
C386        C  0.68292787  0.17608174  0.35859127    -0.03000
C387        C  0.70788408  0.19825720  0.33460907    -0.05700
C388        C  0.69814034  0.21203672  0.29654133    -0.16500
C389        C  0.66027975  0.20622645  0.28440435     0.02400
C390        C  0.61932222  0.14119731  0.36523770     0.12400
C391        C  0.69480975  0.16228219  0.39940123     0.63000
H392        H  0.73570557  0.20384520  0.34501577     0.12400
C393        C  0.64130892  0.22691117  0.25019683     0.55100
H394        H  0.60900177  0.17540906  0.29600513     0.08200
C395        C  0.58790301  0.15788108  0.38405889    -0.05600
C396        C  0.56242143  0.13184965  0.40268531    -0.06300
C397        C  0.56658846  0.08987597  0.40224607    -0.15900
C398        C  0.59717255  0.07316681  0.38229886    -0.01500
C399        C  0.62289610  0.09911371  0.36382752    -0.09000
C400        C  0.58131194  0.20300725  0.38471001     0.65200
H401        H  0.53915297  0.14416459  0.41849529     0.10700
C402        C  0.60279725  0.02809337  0.38139412     0.63600
H403        H  0.64628226  0.08671613  0.34827226     0.08000
F404        F  0.61250708  0.25022239  0.26398820    -0.19400
F405        F  0.62698576  0.19896766  0.22429540    -0.15600
F406        F  0.66476490  0.25139947  0.23046310    -0.19100
F407        F  0.69473823  0.12080240  0.40136217    -0.22500
F408        F  0.67056829  0.17711726  0.42702095    -0.24000
F409        F  0.73006705  0.17557510  0.40902279    -0.18000
F410        F  0.57213089  0.01005365  0.36434962    -0.20500
F411        F  0.60741449  0.01370092  0.41937249    -0.21600
F412        F  0.63371527  0.01751820  0.35997528    -0.18800
F413        F  0.55093141  0.21296626  0.40724668    -0.18900
F414        F  0.57483060  0.21712966  0.34694367    -0.22700
F415        F  0.61192499  0.22236526  0.40029749    -0.24300
C416        C  0.67696952  0.12852541  0.21359229    -0.11200
C417        C  0.66350679  0.13520235  0.17507650     0.11400
C418        C  0.68367546  0.16344906  0.15177990    -0.03000
C419        C  0.70731982  0.19115254  0.17059825    -0.05700
C420        C  0.71729469  0.18721903  0.21058962    -0.16500
C421        C  0.70710001  0.15044158  0.22909095     0.02400
C422        C  0.62719230  0.11730171  0.16012611     0.12400
C423        C  0.68169204  0.16541553  0.10711410     0.63000
H424        H  0.71797082  0.21552429  0.15300178     0.12400
C425        C  0.72960998  0.13041632  0.26151324     0.55100
H426        H  0.66478004  0.10613280  0.23237579     0.08200
C427        C  0.61571342  0.07620056  0.16346765    -0.05600
C428        C  0.58551067  0.06270921  0.13995547    -0.06300
C429        C  0.56687952  0.08814551  0.11329317    -0.15900
C430        C  0.57592693  0.12967149  0.11305215    -0.01500
C431        C  0.60415320  0.14344494  0.13825371    -0.09000
C432        C  0.63362328  0.04627777  0.19171320     0.65200
H433        H  0.57710341  0.03148741  0.14090105     0.10700
C434        C  0.55862257  0.16112377  0.08592886     0.63600
H435        H  0.61032990  0.17531035  0.13828608     0.08000
F436        F  0.74286815  0.09420120  0.24769028    -0.19400
F437        F  0.70764699  0.12247239  0.29368756    -0.15600
F438        F  0.75975888  0.15313445  0.27296479    -0.19100
F439        F  0.66268835  0.19958017  0.09529472    -0.22500
F440        F  0.66490736  0.13191178  0.09096453    -0.24000
F441        F  0.71724142  0.16729382  0.09229073    -0.18000
F442        F  0.54563663  0.19278466  0.10811283    -0.20500
F443        F  0.52952099  0.14700959  0.06352431    -0.21600
F444        F  0.58544738  0.17544915  0.06063801    -0.18800
F445        F  0.62176837  0.00742302  0.18467879    -0.18900
F446        F  0.62361809  0.05527549  0.22982797    -0.22700
F447        F  0.67175289  0.04691198  0.18815748    -0.24300
C448        C  0.29854054  0.18847278  0.12130223    -0.11200
C449        C  0.31080519  0.14994422  0.13132598     0.11400
C450        C  0.29653546  0.13143782  0.16581181    -0.03000
C451        C  0.27744636  0.15573034  0.19322475    -0.05700
C452        C  0.27204342  0.19721046  0.18638762    -0.16500
C453        C  0.27539337  0.21011527  0.14643065     0.02400
C454        C  0.34329059  0.13364341  0.10973287     0.12400
C455        C  0.30290976  0.08703321  0.17460288     0.63000
H456        H  0.26908891  0.14292631  0.22099628     0.12400
C457        C  0.25003983  0.24042904  0.12665731     0.55100
H458        H  0.30606335  0.20128341  0.09306845     0.08200
C459        C  0.34060012  0.11237570  0.07386950    -0.05600
C460        C  0.37335582  0.09670251  0.05728845    -0.06300
C461        C  0.40865422  0.10432525  0.07374457    -0.15900
C462        C  0.41125800  0.12886433  0.10765260    -0.01500
C463        C  0.37846349  0.14259500  0.12523837    -0.09000
C464        C  0.30374876  0.10770593  0.05248316     0.65200
H465        H  0.37173733  0.07857334  0.03095949     0.10700
C466        C  0.44830825  0.14039886  0.12554843     0.63600
H467        H  0.37995981  0.16086989  0.15144167     0.08000
F468        F  0.22129987  0.25097281  0.15074145    -0.19400
F469        F  0.23433889  0.22358025  0.09327576    -0.15600
F470        F  0.26974987  0.27418926  0.11548144    -0.19100
F471        F  0.34008245  0.07734436  0.17230324    -0.22500
F472        F  0.28350762  0.06409833  0.14774520    -0.24000
F473        F  0.29085246  0.07660972  0.21186043    -0.18000
F474        F  0.46758964  0.16335254  0.09871670    -0.20500
F475        F  0.46840037  0.10632296  0.13513243    -0.21600
F476        F  0.44440809  0.16285834  0.15943905    -0.18800
F477        F  0.30698151  0.08429731  0.01915406    -0.18900
F478        F  0.29079802  0.14511310  0.04101313    -0.22700
F479        F  0.27796847  0.08991387  0.07670986    -0.24300
C480        C  0.34708885  0.14587267  0.30508288    -0.11200
C481        C  0.33166423  0.13897982  0.34194431     0.11400
C482        C  0.29447665  0.15039104  0.34817084    -0.03000
C483        C  0.27472178  0.16959329  0.31731405    -0.05700
C484        C  0.29145646  0.18207799  0.28175740    -0.16500
C485        C  0.32903759  0.16833796  0.27522805     0.02400
C486        C  0.35670470  0.12146749  0.37288480     0.12400
C487        C  0.27452998  0.14469841  0.38693635     0.63000
H488        H  0.24625481  0.17831613  0.32270043     0.12400
C489        C  0.35278446  0.17330088  0.23859667     0.55100
H490        H  0.37509514  0.13510294  0.30043283     0.08200
C491        C  0.36230684  0.07964243  0.37649052    -0.05600
C492        C  0.38979905  0.06532897  0.40271088    -0.06300
C493        C  0.41231174  0.09123605  0.42551081    -0.15900
C494        C  0.40578133  0.13340106  0.42256561    -0.01500
C495        C  0.37806266  0.14763411  0.39615363    -0.09000
C496        C  0.33967161  0.05032414  0.35203005     0.65200
H497        H  0.39476533  0.03333614  0.40424193     0.10700
C498        C  0.42774444  0.16353825  0.44669530     0.63600
H499        H  0.37346487  0.17961422  0.39251595     0.08000
F500        F  0.35415824  0.13704909  0.21958347    -0.19400
F501        F  0.38910065  0.18235903  0.24842106    -0.15600
F502        F  0.34076434  0.20256027  0.21308327    -0.19100
F503        F  0.26428047  0.18190178  0.40115508    -0.22500
F504        F  0.29580850  0.12567177  0.41548229    -0.24000
F505        F  0.24295468  0.12198843  0.38071376    -0.18000
F506        F  0.46421125  0.16405563  0.43457971    -0.20500
F507        F  0.42624902  0.15329931  0.48615892    -0.21600
F508        F  0.41382650  0.20213132  0.44250662    -0.18800
F509        F  0.34805770  0.01074869  0.36119956    -0.18900
F510        F  0.34662921  0.05638227  0.31249139    -0.22700
F511        F  0.30234465  0.05618933  0.35877933    -0.24300
C512        C  0.60708750  0.87265551  0.12068141    -0.11200
C513        C  0.63811133  0.89439932  0.13379479     0.11400
C514        C  0.64143752  0.93543579  0.12206068    -0.03000
C515        C  0.61190123  0.95376915  0.10039730    -0.05700
C516        C  0.57983517  0.93223408  0.08959159    -0.16500
C517        C  0.57793885  0.89087165  0.09927473     0.02400
C518        C  0.66356844  0.87351790  0.16299599     0.12400
C519        C  0.67574733  0.95980062  0.13226351     0.63000
H520        H  0.61365752  0.98503709  0.09162400     0.12400
C521        C  0.54448073  0.86627446  0.08767286     0.55100
H522        H  0.60520964  0.84122430  0.12889260     0.08200
C523        C  0.64977717  0.85743771  0.19881007    -0.05600
C524        C  0.67123896  0.82930608  0.22012341    -0.06300
C525        C  0.70862727  0.82117796  0.21132117    -0.15900
C526        C  0.72385621  0.84116595  0.17791613    -0.01500
C527        C  0.70037501  0.86439416  0.15299583    -0.09000
C528        C  0.61211830  0.86803769  0.21546342     0.65200
H529        H  0.65801738  0.81345861  0.24401361     0.10700
C530        C  0.76456606  0.83988284  0.16729502     0.63600
H531        H  0.71112243  0.87514040  0.12528071     0.08000
F532        F  0.51323927  0.88282744  0.10437379    -0.19400
F533        F  0.54725197  0.82681127  0.10034389    -0.15600
F534        F  0.54091444  0.86632134  0.04711067    -0.19100
F535        F  0.70598821  0.94483847  0.11254580    -0.22500
F536        F  0.68266525  0.95806723  0.17235350    -0.24000
F537        F  0.67181427  0.99970588  0.12130310    -0.18000
F538        F  0.76882383  0.81927983  0.13242863    -0.20500
F539        F  0.78636701  0.82205808  0.19611376    -0.21600
F540        F  0.77735750  0.87872720  0.16210143    -0.18800
F541        F  0.61562853  0.87493563  0.25544107    -0.18900
F542        F  0.58800638  0.83628766  0.20971104    -0.22700
F543        F  0.59707852  0.90240161  0.19871625    -0.24300
C544        C  0.68357383  0.87193348  0.32426748    -0.11200
C545        C  0.65706475  0.85520498  0.34947256     0.11400
C546        C  0.65632406  0.81321104  0.35505211    -0.03000
C547        C  0.67804068  0.78909504  0.33065365    -0.05700
C548        C  0.70309128  0.80514880  0.30280865    -0.16500
C549        C  0.70888512  0.84758468  0.30370452     0.02400
C550        C  0.62935315  0.88121228  0.36919698     0.12400
C551        C  0.63274830  0.79377235  0.38696139     0.63000
H552        H  0.67350538  0.75748277  0.33305955     0.12400
C553        C  0.74226987  0.86865160  0.28637346     0.55100
H554        H  0.68540497  0.90432093  0.32161808     0.08200
C555        C  0.63753932  0.90300480  0.40388520    -0.05600
C556        C  0.60803652  0.92007970  0.42502497    -0.06300
C557        C  0.57117094  0.91640885  0.41206944    -0.15900
C558        C  0.56334936  0.89677076  0.37614648    -0.01500
C559        C  0.59271651  0.87972323  0.35510583    -0.09000
C560        C  0.67712445  0.90809167  0.41841895     0.65200
H561        H  0.61344864  0.93610744  0.45212112     0.10700
C562        C  0.52424003  0.89479458  0.35975413     0.63600
H563        H  0.58714261  0.86345536  0.32818443     0.08000
F564        F  0.75823679  0.89287535  0.31481447    -0.19400
F565        F  0.73130648  0.89268563  0.25502907    -0.15600
F566        F  0.76925505  0.84214273  0.27432869    -0.19100
F567        F  0.59553985  0.79988888  0.37927468    -0.22500
F568        F  0.64148917  0.81034613  0.42306153    -0.24000
F569        F  0.63876296  0.75276003  0.38982821    -0.18000
F570        F  0.51205085  0.93343352  0.35235540    -0.20500
F571        F  0.50105955  0.87636053  0.38655820    -0.21600
F572        F  0.52231878  0.87349933  0.32490976    -0.18800
F573        F  0.67875002  0.92837215  0.45383602    -0.18900
F574        F  0.69697201  0.92994124  0.39106806    -0.18500
F575        F  0.69373404  0.87100856  0.42379059    -0.24300
C576        C  0.30601507  0.88749820  0.30294599    -0.11200
C577        C  0.33050542  0.87302113  0.33236011     0.11400
C578        C  0.32815900  0.83202775  0.34347618    -0.03000
C579        C  0.30201646  0.80720969  0.32456389    -0.05700
C580        C  0.28063136  0.82002231  0.29194629    -0.16500
C581        C  0.28159650  0.86166880  0.28200290     0.02400
C582        C  0.35831277  0.90065096  0.35158012     0.12400
C583        C  0.35458820  0.81370340  0.37380488     0.63000
H584        H  0.30043934  0.77627618  0.33349010     0.12400
C585        C  0.25716020  0.88082474  0.25058761     0.55100
H586        H  0.30697554  0.91913945  0.29524125     0.08200
C587        C  0.39234034  0.91202794  0.33389043    -0.05600
C588        C  0.41971305  0.93101850  0.35699195    -0.06300
C589        C  0.41499888  0.93944508  0.39710341    -0.15900
C590        C  0.37971592  0.93152401  0.41388721    -0.01500
C591        C  0.35212567  0.91232323  0.39070890    -0.09000
C592        C  0.40234033  0.90456857  0.29131758     0.65200
H593        H  0.44558774  0.93896167  0.34320861     0.10700
C594        C  0.37045203  0.94397580  0.45553331     0.63600
H595        H  0.32563529  0.90479591  0.40351691     0.08000
F596        F  0.27911362  0.89539609  0.22057045    -0.19400
F597        F  0.23797347  0.91260790  0.26673272    -0.15600
F598        F  0.23140802  0.85454180  0.23494140    -0.19100
F599        F  0.34811479  0.82980771  0.41046792    -0.22500
F600        F  0.39081631  0.82141993  0.36317797    -0.24000
F601        F  0.35047836  0.77242785  0.37678766    -0.18000
F602        F  0.33342910  0.93774937  0.46398836    -0.20500
F603        F  0.37789162  0.98431962  0.46059697    -0.21600
F604        F  0.39115505  0.92186382  0.48210936    -0.18800
F605        F  0.41265967  0.94048335  0.27385287    -0.18900
F606        F  0.37364227  0.88898375  0.26943108    -0.22700
F607        F  0.43191894  0.87818489  0.28995565    -0.24300
C608        C  0.38804548  0.84605717  0.09490236    -0.11200
C609        C  0.36828540  0.86745058  0.12339173     0.11400
C610        C  0.37626928  0.90851721  0.12955701    -0.03000
C611        C  0.40297308  0.92716285  0.10596916    -0.05700
C612        C  0.42277246  0.90620327  0.07712425    -0.16500
C613        C  0.41550066  0.86457109  0.07157423     0.02400
C614        C  0.34268284  0.84501846  0.14965276     0.12400
C615        C  0.35712883  0.93256266  0.16136022     0.63000
H616        H  0.40906874  0.95865951  0.11048397     0.12400
C617        C  0.43661335  0.83921958  0.04219207     0.55100
H618        H  0.38236332  0.81426748  0.09189936     0.08200
C619        C  0.30497329  0.83820761  0.14031535    -0.05600
C620        C  0.28248686  0.81819070  0.16814256    -0.06300
C621        C  0.29695782  0.80308944  0.20398919    -0.15900
C622        C  0.33605088  0.80682711  0.21091951    -0.01500
C623        C  0.35755156  0.82896376  0.18434137    -0.09000
C624        C  0.28926586  0.85050973  0.10043749     0.65200
H625        H  0.25341156  0.81322673  0.16164344     0.10700
C626        C  0.35804678  0.78582609  0.24307444     0.63600
H627        H  0.38699337  0.83268327  0.19008565     0.08000
F628        F  0.42143688  0.80122987  0.03836512    -0.19400
F629        F  0.47277955  0.83468557  0.05478280    -0.15600
F630        F  0.43625773  0.85701527  0.00539016    -0.19100
F631        F  0.36351969  0.91494894  0.19760319    -0.22500
F632        F  0.31943791  0.93378768  0.15415996    -0.24000
F633        F  0.36995687  0.97172825  0.16313081    -0.18000
F634        F  0.38365383  0.76024617  0.22640008    -0.20500
F635        F  0.33624546  0.76379345  0.26730057    -0.21600
F636        F  0.37693771  0.81338921  0.26572599    -0.18800
F637        F  0.25191015  0.84165986  0.09711346    -0.18900
F638        F  0.30773738  0.83013643  0.07118296    -0.22700
F639        F  0.29369473  0.89131225  0.09444782    -0.24300
C640        C  0.35679211  0.58618738  0.38586282    -0.11200
C641        C  0.35744533  0.62561861  0.39968627     0.11400
C642        C  0.37633103  0.63494450  0.43502834    -0.03000
C643        C  0.39755961  0.60461272  0.45329018    -0.05700
C644        C  0.39966256  0.56579092  0.43733799    -0.16500
C645        C  0.37774619  0.55585256  0.40392034     0.02400
C646        C  0.33882148  0.65608833  0.37495701     0.12400
C647        C  0.37405952  0.67646788  0.45311117     0.63000
H648        H  0.41359363  0.61133136  0.47954357     0.12400
C649        C  0.37713111  0.51416631  0.38606439     0.55100
H650        H  0.34112989  0.57980451  0.35933604     0.08200
C651        C  0.35486989  0.67010250  0.33996073    -0.05600
C652        C  0.33250584  0.69134645  0.31323297    -0.06300
C653        C  0.29469165  0.70000518  0.32008921    -0.15900
C654        C  0.28107596  0.69114610  0.35880503    -0.01500
C655        C  0.30283224  0.66712039  0.38424474    -0.09000
C656        C  0.39520886  0.66150794  0.33025771     0.65200
H657        H  0.34501082  0.69966609  0.28595374     0.10700
C658        C  0.24509329  0.70681026  0.37526373     0.63600
H659        H  0.29193202  0.65623693  0.41189869     0.08000
F660        F  0.40938154  0.50826339  0.36533224    -0.19400
F661        F  0.34756072  0.50939043  0.36022205    -0.15600
F662        F  0.37389749  0.48518251  0.41518316    -0.19100
F663        F  0.33782108  0.68461613  0.46319411    -0.22500
F664        F  0.38595322  0.70522444  0.42658147    -0.24000
F665        F  0.39572215  0.67939218  0.48681958    -0.18000
F666        F  0.21629716  0.69718104  0.35047817    -0.20500
F667        F  0.24750385  0.74784637  0.38063251    -0.21600
F668        F  0.23730846  0.69038458  0.41178202    -0.18800
F669        F  0.40620139  0.68094208  0.29615783    -0.18900
F670        F  0.40045646  0.62077273  0.32509582    -0.22700
F671        F  0.41786385  0.67452866  0.36061851    -0.24300
C672        C  0.33087601  0.61090856  0.22159459    -0.11200
C673        C  0.35165548  0.62485539  0.18981631     0.11400
C674        C  0.35057400  0.66576835  0.17882014    -0.03000
C675        C  0.32885199  0.69170622  0.20093122    -0.05700
C676        C  0.30526593  0.67775952  0.23074222    -0.16500
C677        C  0.30621785  0.63615451  0.24144938     0.02400
C678        C  0.37127682  0.59547614  0.16562800     0.12400
C679        C  0.37050147  0.68169776  0.14256128     0.63000
H680        H  0.32847078  0.72317953  0.19319897     0.12400
C681        C  0.28055956  0.61529586  0.27043198     0.55100
H682        H  0.33190830  0.57916888  0.22898443     0.08200
C683        C  0.40881473  0.58599267  0.17263419    -0.05600
C684        C  0.42774984  0.56473520  0.14363326    -0.06300
C685        C  0.40999684  0.55279607  0.10862102    -0.15900
C686        C  0.37157041  0.55923570  0.10332499    -0.01500
C687        C  0.35256618  0.58023395  0.13258769    -0.09000
C688        C  0.42864832  0.59880108  0.21016834     0.65200
H689        H  0.45703748  0.55843460  0.14741909     0.10700
C690        C  0.35149224  0.54706511  0.06585166     0.63600
H691        H  0.32350060  0.58754453  0.12863454     0.08000
F692        F  0.30100053  0.60200440  0.30247789    -0.19400
F693        F  0.26441268  0.58229954  0.25254236    -0.15600
F694        F  0.25217030  0.63916176  0.28356788    -0.19100
F695        F  0.35659565  0.66328356  0.10919602    -0.22500
F696        F  0.40804622  0.67408315  0.14550634    -0.24000
F697        F  0.36584626  0.72275572  0.13775008    -0.18000
F698        F  0.35454385  0.50609314  0.06045171    -0.20500
F699        F  0.36684322  0.56696868  0.03414843    -0.21600
F700        F  0.31415930  0.55655796  0.06693181    -0.18800
F701        F  0.46498932  0.58548670  0.21127792    -0.18900
F702        F  0.41058099  0.58286152  0.24238490    -0.22700
F703        F  0.42894590  0.64019394  0.21313372    -0.24300
C704        C  0.59134375  0.64363241  0.36946345    -0.11200
C705        C  0.57748957  0.64039364  0.33104776     0.11400
C706        C  0.54629461  0.61565479  0.32385326    -0.03000
C707        C  0.53117437  0.59354758  0.35539190    -0.05700
C708        C  0.54607938  0.59511731  0.39389951    -0.16500
C709        C  0.57598998  0.62227147  0.40115640     0.02400
C710        C  0.59967318  0.66015309  0.29971765     0.12400
C711        C  0.52835879  0.61059756  0.28367985     0.63000
H712        H  0.50816486  0.57352498  0.34930217     0.12400
C713        C  0.59177671  0.62966882  0.44187631     0.55100
H714        H  0.61541614  0.66252230  0.37420724     0.08200
C715        C  0.60255343  0.70233798  0.29675588    -0.05600
C716        C  0.63267938  0.71878683  0.27628118    -0.06300
C717        C  0.65784615  0.69464140  0.25575704    -0.15900
C718        C  0.64896902  0.65314816  0.25111136    -0.01500
C719        C  0.62187813  0.63621194  0.27573702    -0.09000
C720        C  0.57317561  0.72947521  0.31392749     0.65200
H721        H  0.63679796  0.75092234  0.27598583     0.10700
C722        C  0.66571976  0.62519059  0.22111322     0.63600
H723        H  0.61788707  0.60391092  0.27616172     0.08000
F724        F  0.61712657  0.66092122  0.44252048    -0.19400
F725        F  0.60957397  0.59566481  0.45602728    -0.15600
F726        F  0.56300505  0.64007407  0.46604260    -0.19100
F727        F  0.53391239  0.57164234  0.27108301    -0.22500
F728        F  0.54213015  0.63671464  0.25563192    -0.24000
F729        F  0.49068715  0.61752445  0.28657597    -0.18000
F730        F  0.63745022  0.60614583  0.20069649    -0.20500
F731        F  0.68690013  0.59621155  0.24009660    -0.21600
F732        F  0.68696008  0.64489886  0.19370470    -0.18800
F733        F  0.57955589  0.76946239  0.30477092    -0.18900
F734        F  0.57221238  0.72545001  0.35436462    -0.22700
F735        F  0.53894162  0.71900105  0.29850770    -0.24300
C736        C  0.67007590  0.72336173  0.10178088    -0.11200
C737        C  0.63259484  0.71629291  0.10903360     0.11400
C738        C  0.61846548  0.72393742  0.14698023    -0.03000
C739        C  0.64376621  0.73420119  0.17654663    -0.05700
C740        C  0.68165276  0.72616850  0.17208003    -0.16500
C741        C  0.69536956  0.72098732  0.13314911     0.02400
C742        C  0.61654886  0.68414563  0.08487984     0.12400
C743        C  0.57805243  0.71762045  0.15767278     0.63000
H744        H  0.63364609  0.74496742  0.20419796     0.12400
C745        C  0.73389805  0.70596799  0.12322599     0.55100
H746        H  0.67992081  0.71907828  0.07201843     0.08200
C747        C  0.58413809  0.68814731  0.06185257    -0.05600
C748        C  0.56818828  0.65313039  0.04699286    -0.06300
C749        C  0.58604100  0.61559807  0.05003781    -0.15900
C750        C  0.62049370  0.61233709  0.06973715    -0.01500
C751        C  0.63453242  0.64664429  0.08789985    -0.09000
C752        C  0.56560650  0.72780652  0.05170649     0.65200
H753        H  0.54099211  0.65517135  0.03346778     0.10700
C754        C  0.64105969  0.57269480  0.07429216     0.63600
H755        H  0.65941841  0.64424408  0.10584479     0.08000
F756        F  0.75645821  0.73785883  0.11312660    -0.19400
F757        F  0.73253240  0.67977700  0.09169946    -0.15600
F758        F  0.74924014  0.68480214  0.15407968    -0.19100
F759        F  0.57220921  0.72272199  0.19757653    -0.22500
F760        F  0.56695312  0.67906234  0.14826855    -0.24000
F761        F  0.55611501  0.74505137  0.13776509    -0.18000
F762        F  0.64987383  0.55783894  0.03764265    -0.20500
F763        F  0.61917897  0.54531904  0.09403570    -0.21600
F764        F  0.67379404  0.57686883  0.09547910    -0.18800
F765        F  0.53002324  0.72816862  0.06649801    -0.18900
F766        F  0.56344197  0.73184353  0.01121630    -0.22700
F767        F  0.58481903  0.76055242  0.06614186    -0.24300
C768        C  0.62371610  0.43694574  0.34092476    -0.11200
C769        C  0.62550111  0.39538451  0.34748491     0.11400
C770        C  0.61253865  0.37876844  0.38317183    -0.03000
C771        C  0.59661742  0.40471353  0.41057695    -0.05700
C772        C  0.59675691  0.44660668  0.40516063    -0.16500
C773        C  0.60959149  0.46303526  0.36932812     0.02400
C774        C  0.65014544  0.37268640  0.32166160     0.12400
C775        C  0.61711504  0.33435882  0.39312208     0.63000
H776        H  0.58425801  0.39238056  0.43679304     0.12400
C777        C  0.60561354  0.50728690  0.35977292     0.55100
H778        H  0.63471129  0.44885564  0.31367383     0.08200
C779        C  0.63908681  0.35456310  0.28599857    -0.05600
C780        C  0.66630561  0.33465275  0.26372954    -0.06300
C781        C  0.70392881  0.33390857  0.27558923    -0.15900
C782        C  0.71444706  0.35804168  0.30811219    -0.01500
C783        C  0.68739450  0.37487232  0.33165342    -0.09000
C784        C  0.59915947  0.35666638  0.27165906     0.65200
H785        H  0.65795003  0.31960343  0.23726784     0.10700
C786        C  0.75368807  0.36965486  0.31683064     0.63600
H787        H  0.69537502  0.39123087  0.35794280     0.08000
F788        F  0.62094389  0.51719162  0.32380075    -0.19400
F789        F  0.62291182  0.53019574  0.38832703    -0.15600
F790        F  0.56840324  0.51649989  0.35806955    -0.19100
F791        F  0.65432274  0.32449483  0.39449869    -0.22500
F792        F  0.59973859  0.31107445  0.36502335    -0.24000
F793        F  0.60203030  0.32473099  0.42929472    -0.18000
F794        F  0.75585239  0.40575023  0.33683636    -0.20500
F795        F  0.77200802  0.37514424  0.28196496    -0.21600
F796        F  0.76973963  0.34024275  0.33996793    -0.18800
F797        F  0.59447761  0.33810916  0.23560723    -0.18900
F798        F  0.58849827  0.39637280  0.26760656    -0.22700
F799        F  0.57608020  0.33806123  0.29831513    -0.24300
C800        C  0.70312099  0.38166627  0.15248028    -0.11200
C801        C  0.66961526  0.36544656  0.13869765     0.11400
C802        C  0.66159538  0.32438925  0.14521767    -0.03000
C803        C  0.68721409  0.30147405  0.16679163    -0.05700
C804        C  0.71726417  0.31925541  0.18640119    -0.16500
C805        C  0.72732529  0.35909117  0.17638214     0.02400
C806        C  0.64354704  0.39222069  0.11765674     0.12400
C807        C  0.62520999  0.30536096  0.13205646     0.63000
H808        H  0.68258985  0.26981683  0.17005298     0.12400
C809        C  0.76372070  0.37841918  0.18780258     0.55100
H810        H  0.70986691  0.41262101  0.14539965     0.08200
C811        C  0.62540999  0.42452482  0.13622225    -0.05600
C812        C  0.60289771  0.44974569  0.11317950    -0.06300
C813        C  0.59561947  0.44235069  0.07300672    -0.15900
C814        C  0.61350035  0.40924601  0.05489420    -0.01500
C815        C  0.63831526  0.38593143  0.07738789    -0.09000
C816        C  0.62890501  0.43427622  0.17979532     0.65200
H817        H  0.58995162  0.47504878  0.12751047     0.10700
C818        C  0.60751369  0.39848781  0.01216719     0.63600
H819        H  0.65412574  0.36229014  0.06365437     0.08000
F820        F  0.75710516  0.41110342  0.21163142    -0.19400
F821        F  0.78128728  0.39161580  0.15410224    -0.15600
F822        F  0.78738640  0.35220991  0.20701567    -0.19100
F823        F  0.62364011  0.30277948  0.09153111    -0.22500
F824        F  0.59579579  0.32822912  0.14501151    -0.24000
F825        F  0.62103558  0.26692433  0.14723805    -0.18000
F826        F  0.61956631  0.42989991  0.98892040    -0.20500
F827        F  0.57034403  0.39079589  0.00532732    -0.21600
F828        F  0.62708949  0.36451954  0.00157490    -0.18800
F829        F  0.59410419  0.44093483  0.19516417    -0.18900
F830        F  0.64973687  0.46885246  0.18413395    -0.22700
F831        F  0.64515274  0.40394900  0.20182262    -0.24300
C832        C  0.40568225  0.35759135  0.39010491    -0.11200
C833        C  0.38023555  0.33506245  0.41208675     0.11400
C834        C  0.38015602  0.33779329  0.45358854    -0.03000
C835        C  0.40118922  0.36856919  0.47087727    -0.05700
C836        C  0.42472275  0.39279355  0.44805594    -0.16500
C837        C  0.42926223  0.38523815  0.40765254     0.02400
C838        C  0.35431986  0.31106417  0.38836760     0.12400
C839        C  0.36016871  0.30857622  0.48047280     0.63000
H840        H  0.39955433  0.37351423  0.50233269     0.12400
C841        C  0.45795930  0.40688156  0.38280881     0.55100
H842        H  0.40654353  0.35368704  0.35852790     0.08200
C843        C  0.31822735  0.32517535  0.37971612    -0.05600
C844        C  0.30101043  0.31182930  0.34514198    -0.06300
C845        C  0.32038845  0.29078877  0.31601040    -0.15900
C846        C  0.35672728  0.27698083  0.32535187    -0.01500
C847        C  0.37114963  0.28395653  0.36298730    -0.09000
C848        C  0.29862097  0.35579473  0.40522417     0.65200
H849        H  0.27266329  0.32006468  0.33950433     0.10700
C850        C  0.38339273  0.25771203  0.29764302     0.63600
H851        H  0.39910505  0.27388119  0.36997754     0.08000
F852        F  0.45259286  0.44784372  0.38442316    -0.19400
F853        F  0.45612352  0.39567957  0.34366521    -0.15600
F854        F  0.49307537  0.39773412  0.39681684    -0.19100
F855        F  0.38575978  0.29045022  0.50542269    -0.22500
F856        F  0.34191567  0.27859165  0.46003597    -0.24000
F857        F  0.33476208  0.32899720  0.50304023    -0.18000
F858        F  0.41430155  0.28199606  0.29383687    -0.20500
F859        F  0.36848412  0.25243977  0.26109263    -0.21600
F860        F  0.39443600  0.22101576  0.31302427    -0.18800
F861        F  0.29133829  0.33923571  0.44161641    -0.18900
F862        F  0.26514900  0.36784949  0.38880833    -0.22700
F863        F  0.32035619  0.38969599  0.40979842    -0.24300
C864        C  0.38148572  0.36269434  0.21420275    -0.11200
C865        C  0.39246248  0.34559632  0.17857591     0.11400
C866        C  0.37571364  0.30956885  0.16578074    -0.03000
C867        C  0.34680719  0.29345587  0.18796534    -0.05700
C868        C  0.33360019  0.31161169  0.22249814    -0.16500
C869        C  0.35122679  0.34761490  0.23571211     0.02400
C870        C  0.41568645  0.37031129  0.15218750     0.12400
C871        C  0.38581866  0.28771875  0.12821558     0.63000
H872        H  0.33399095  0.26616492  0.17739533     0.12400
C873        C  0.33823654  0.37393807  0.26922683     0.55100
H874        H  0.39455501  0.39051610  0.22332511     0.08200
C875        C  0.40002525  0.39168024  0.11986791    -0.05600
C876        C  0.42377419  0.41221367  0.09446146    -0.06300
C877        C  0.46194728  0.41525006  0.10178848    -0.15900
C878        C  0.47755527  0.39506645  0.13469088    -0.01500
C879        C  0.45412874  0.37211274  0.15916191    -0.09000
C880        C  0.35868574  0.39529622  0.11103645     0.65200
H881        H  0.41169064  0.42840480  0.06987325     0.10700
C882        C  0.51861655  0.39765233  0.14335526     0.63600
H883        H  0.46550848  0.35576055  0.18414847     0.08000
F884        F  0.33713138  0.41368085  0.25696627    -0.19400
F885        F  0.36296453  0.37071081  0.30036163    -0.15600
F886        F  0.30328643  0.36459168  0.28202145    -0.19100
F887        F  0.35604336  0.28919940  0.10229381    -0.22500
F888        F  0.39348176  0.24791333  0.13700921    -0.24000
F889        F  0.41644595  0.30367029  0.10968598    -0.18000
F890        F  0.52883417  0.37419675  0.17545671    -0.20500
F891        F  0.52795254  0.43702511  0.15133467    -0.21600
F892        F  0.53809841  0.38460923  0.11099674    -0.18800
F893        F  0.34940147  0.43550034  0.10755282    -0.18900
F894        F  0.33633311  0.37892304  0.13971356    -0.22700
F895        F  0.35080540  0.37654204  0.07574463    -0.24300
O896        O  0.48777808  0.47536330  0.59033175    -0.79400
O897        O  0.54066486  0.46123796  0.94355412    -0.79400
O898        O  0.41659571  0.44776853  0.99967172    -0.79400
O899        O  0.56088510  0.46264475  0.51816990    -0.79400
O900        O  0.46926708  0.43906970  0.96826063    -0.79500
O901        O  0.55726898  0.49823461  0.57129830    -0.79400
O902        O  0.58810535  0.50259655  0.95080364    -0.79400
O903        O  0.47550503  0.43989818  0.53881379    -0.79400
C904        C  0.47882618  0.44201587  0.57536891     1.10300
C905        C  0.57327015  0.47280268  0.93339041     1.10200
C906        C  0.43553019  0.42880962  0.97437757     1.10300
C907        C  0.56942262  0.46753752  0.55385391     1.10200
O908        O  0.52975004  0.57627520  0.54689623    -0.79400
O909        O  0.44232742  0.51516916  0.93473562    -0.79500
O910        O  0.42412074  0.50042984  0.56288126    -0.79400
O911        O  0.54111003  0.56646009  0.95716765    -0.79400
O912        O  0.50959736  0.53638199  0.91300458    -0.79500
O913        O  0.45961558  0.55335644  0.56804155    -0.79400
O914        O  0.57944482  0.54840509  0.52254304    -0.79400
O915        O  0.42473708  0.52957914  0.99306815    -0.79400
Co916      Co  0.50820122  0.52526711  0.56406400     1.51500
Co917      Co  0.49126310  0.49099699  0.94717278     1.51700
Co918      Co  0.45459655  0.48528767  0.01331977     1.51600
Co919      Co  0.55075635  0.51162749  0.48628736     1.51500
O920        O  0.49967210  0.51308085  0.50391438    -1.41300
C921        C  0.56385667  0.57775926  0.53968513     1.10200
C922        C  0.42128237  0.53395807  0.95701864     1.10300
C923        C  0.43060956  0.53413445  0.57757085     1.10200
C924        C  0.52835853  0.56650769  0.92297437     1.10200
O925        O  0.52033379  0.96410887  0.57565830    -0.79400
O926        O  0.51174326  0.05227813  0.92229274    -0.79400
O927        O  0.52967486  0.92405724  0.96363615    -0.79400
O928        O  0.54915804  0.06825895  0.54332390    -0.79400
O929        O  0.54064690  0.98333784  0.94214788    -0.79500
O930        O  0.51271306  0.04511868  0.58991555    -0.79400
O931        O  0.54853079  0.07064106  0.96976893    -0.79400
O932        O  0.55148810  0.95545907  0.52045613    -0.79400
C933        C  0.54936748  0.95214232  0.55771682     1.10300
C934        C  0.54097757  0.07035615  0.93369554     1.10200
C935        C  0.54841734  0.94628431  0.94210814     1.10300
C936        C  0.54180394  0.06393312  0.57923218     1.10200
O937        O  0.43883000  0.04210698  0.55265941    -0.79400
O938        O  0.46979518  0.98198061  0.90906589    -0.79500
O939        O  0.48053084  0.91837579  0.52731022    -0.79400
O940        O  0.46871699  0.09132201  0.96642589    -0.79400
O941        O  0.44151941  0.03306882  0.96171629    -0.79500
O942        O  0.44359707  0.96616574  0.54045037    -0.79400
O943        O  0.47248860  0.09575470  0.54239843    -0.79400
O944        O  0.45724578  0.94413155  0.96122981    -0.79400
Co945      Co  0.47966267  0.00469718  0.56130332     1.51500
Co946      Co  0.48993439  0.00649590  0.95508369     1.51700
Co947      Co  0.50491342  0.95676077  0.48801866     1.51600
Co948      Co  0.51045498  0.07579966  0.50295660     1.51500
O949        O  0.49838379  0.01513150  0.50616114    -1.41300
C950        C  0.44240766  0.07946990  0.55332467     1.10200
C951        C  0.45067698  0.95420906  0.92481241     1.10300
C952        C  0.45103461  0.92970712  0.54360609     1.10200
C953        C  0.44105026  0.07042027  0.95490697     1.10200
O954        O  0.93751011  0.55795105  0.54100657    -0.79400
O955        O  0.06876849  0.53908878  0.95558829    -0.79400
O956        O  0.01881857  0.55062709  0.57398485    -0.79400
O957        O  0.95583606  0.51411556  0.91016884    -0.79400
O958        O  0.06775568  0.54431872  0.53892050    -0.79500
O959        O  0.93564608  0.55269360  0.95696397    -0.79400
O960        O  0.01649158  0.55053663  0.92799462    -0.79400
O961        O  0.95630118  0.52232050  0.59127929    -0.79400
C962        C  0.93798936  0.55234251  0.57754690     1.10300
C963        C  0.05002067  0.55909286  0.93092015     1.10200
C964        C  0.05028495  0.56283001  0.56487086     1.10300
C965        C  0.93698947  0.54451202  0.92096033     1.10200
O966        O  0.92352624  0.46663544  0.96134658    -0.79400
O967        O  0.05197868  0.45742144  0.55069113    -0.79500
O968        O  0.97495497  0.44289663  0.55459450    -0.79400
O969        O  0.02916409  0.47347714  0.90214431    -0.79400
O970        O  0.05112678  0.45338157  0.95981391    -0.79500
O971        O  0.92195629  0.47253367  0.54825741    -0.79400
O972        O  0.97865073  0.44136605  0.95385110    -0.79400
O973        O  0.02339050  0.47598461  0.60602324    -0.79400
Co974      Co  0.93398031  0.51244939  0.50494893     1.51500
Co975      Co  0.05170924  0.49885342  0.50449156     1.51700
Co976      Co  0.99906266  0.49691294  0.56070329     1.51600
Co977      Co  0.99988634  0.49602083  0.94398426     1.51500
O978        O  0.99120018  0.51223913  0.50509645    -1.41300
C979        C  0.94390138  0.43750854  0.95087421     1.10200
C980        C  0.04838853  0.45577041  0.58868204     1.10300
C981        C  0.94038747  0.44244524  0.56029596     1.10200
C982        C  0.05231676  0.45203321  0.92175189     1.10200
C983        C  0.26564156  0.24823874  0.78715255     0.46200
H984        H  0.26233441  0.23973952  0.81856575    -0.02800
C985        C  0.27151005  0.26985826  0.71469217     0.46200
H986        H  0.27444282  0.28177795  0.68483462    -0.02800
C987        C  0.29945840  0.27487058  0.78060245    -0.16500
C988        C  0.27404666  0.21212935  0.75928774    -0.16300
C989        C  0.23159758  0.27256483  0.77137968    -0.16700
C990        C  0.30309750  0.28673934  0.74170842    -0.16600
C991        C  0.27261665  0.22316265  0.71937702    -0.16200
C992        C  0.23504628  0.28368442  0.73293687    -0.16500
C993        C  0.75469503  0.25238830  0.71190668     0.46200
H994        H  0.75564510  0.24971398  0.68000664    -0.02800
C995        C  0.74863918  0.26477520  0.78633409     0.46200
H996        H  0.74571610  0.26931362  0.81843511    -0.02800
C997        C  0.73357519  0.29134632  0.72185050    -0.16500
C998        C  0.73371192  0.21747200  0.73336168    -0.16300
C999        C  0.79351742  0.25720944  0.73140978    -0.16700
C1000       C  0.72996624  0.29822409  0.76164309    -0.16600
C1001       C  0.72846057  0.22605939  0.77278856    -0.16200
C1002       C  0.78989859  0.26356991  0.77201908    -0.16500
C1003       C  0.26359023  0.73572725  0.71458349     0.46200
H1004       H  0.27086119  0.73106859  0.68362427    -0.02800
C1005       C  0.24755541  0.75089172  0.78669790     0.46200
H1006       H  0.23933138  0.76003217  0.81612779    -0.02800
C1007       C  0.28158561  0.70613636  0.74484707    -0.16500
C1008       C  0.27715856  0.77757614  0.72772535    -0.16300
C1009       C  0.22184956  0.73143044  0.72179003    -0.16700
C1010       C  0.27498425  0.71533075  0.78398775    -0.16600
C1011       C  0.26843203  0.78609770  0.76622927    -0.16200
C1012       C  0.21319474  0.73811586  0.76084294    -0.16500
C1013       C  0.71518681  0.73499711  0.78221312     0.46200
H1014       H  0.70667646  0.72678918  0.81176301    -0.02800
C1015       C  0.73548165  0.75299965  0.71184653     0.46200
H1016       H  0.74504895  0.76135039  0.68235926    -0.02800
C1017       C  0.68902695  0.71749263  0.74932258    -0.16500
C1018       C  0.71524988  0.78093720  0.77482351    -0.16300
C1019       C  0.75469309  0.72044533  0.77370856    -0.16700
C1020       C  0.70013324  0.72825735  0.71172472    -0.16600
C1021       C  0.72361616  0.79050237  0.73594173    -0.16200
C1022       C  0.76420767  0.72695783  0.73511603    -0.16500
C1023       C  0.09153213  0.63125077  0.64383732    -0.11200
C1024       C  0.10644974  0.66253498  0.62105567     0.11400
C1025       C  0.10080749  0.66206483  0.57961021    -0.03000
C1026       C  0.08111928  0.62981772  0.56254421    -0.05700
C1027       C  0.06735099  0.59786175  0.58528945    -0.16500
C1028       C  0.07275244  0.59848593  0.62674659     0.02400
C1029       C  0.13591149  0.68705873  0.64065606     0.12400
C1030       C  0.11558571  0.69401920  0.55189409     0.63000
H1031       H  0.07729227  0.62907579  0.53085139     0.12400
C1032       C  0.06193930  0.56303197  0.65257048     0.55100
H1033       H  0.09739074  0.63118103  0.67517521     0.08200
C1034       C  0.12888422  0.71893681  0.66679132    -0.05600
C1035       C  0.15836183  0.73405637  0.69029507    -0.06300
C1036       C  0.19403572  0.71638793  0.69072547    -0.15900
C1037       C  0.20034619  0.68398057  0.66356123    -0.01500
C1038       C  0.17174313  0.67228361  0.63771389    -0.09000
C1039       C  0.09034020  0.73657071  0.66960369     0.65200
H1040       H  0.15318235  0.75873977  0.71010396     0.10700
C1041       C  0.23362429  0.65624366  0.66497328     0.63600
H1042       H  0.17605001  0.64816244  0.61697817     0.08000
F1043       F  0.02401775  0.55762356  0.65134366    -0.19400
F1044       F  0.07230573  0.56853524  0.69151397    -0.15600
F1045       F  0.07930817  0.52868909  0.63938435    -0.19100
F1046       F  0.13376470  0.72480359  0.57116207    -0.22500
F1047       F  0.08635053  0.71058124  0.53074167    -0.24000
F1048       F  0.13995071  0.67655180  0.52586458    -0.18000
F1049       F  0.22842436  0.62147400  0.64337210    -0.20500
F1050       F  0.23882382  0.64419014  0.70311008    -0.21600
F1051       F  0.26467648  0.67463118  0.65006283    -0.18800
F1052       F  0.08939333  0.76906228  0.69480018    -0.18900
F1053       F  0.06606277  0.70775378  0.68344106    -0.22700
F1054       F  0.07858984  0.74935740  0.63273591    -0.24300
C1055       C  0.07561490  0.62953716  0.84394595    -0.11200
C1056       C  0.10989717  0.64475105  0.85663820     0.11400
C1057       C  0.12302275  0.63367797  0.89472288    -0.03000
C1058       C  0.10171657  0.60747670  0.91837831    -0.05700
C1059       C  0.06813425  0.59059505  0.90513950    -0.16500
C1060       C  0.05497904  0.60182728  0.86677745     0.02400
C1061       C  0.13257926  0.66966640  0.82834704     0.12400
C1062       C  0.16040966  0.64781295  0.90960510     0.63000
H1063       H  0.11188136  0.59894711  0.94732367     0.12400
C1064       C  0.02016123  0.58380709  0.84887744     0.55100
H1065       H  0.06572404  0.63863341  0.81505631     0.08200
C1066       C  0.15246701  0.65181983  0.79717511    -0.05600
C1067       C  0.17570797  0.67608108  0.77374776    -0.06300
C1068       C  0.18036784  0.71761597  0.78008750    -0.15900
C1069       C  0.15800509  0.73600470  0.80911797    -0.01500
C1070       C  0.13469624  0.71168529  0.83282081    -0.09000
C1071       C  0.15005665  0.60696896  0.78923147     0.65200
H1072       H  0.19201078  0.66204053  0.75132468     0.10700
C1073       C  0.15798259  0.78082069  0.81668318     0.63600
H1074       H  0.11846651  0.72564072  0.85567523     0.08000
F1075       F  0.01453833  0.59601955  0.81023516    -0.19400
F1076       F  0.98988522  0.59587404  0.87022841    -0.15600
F1077       F  0.02266697  0.54234719  0.84913231    -0.19100
F1078       F  0.16124906  0.68930431  0.91043157    -0.22500
F1079       F  0.18760874  0.63370904  0.88489833    -0.24000
F1080       F  0.16820148  0.63384767  0.94725498    -0.18000
F1081       F  0.12193902  0.79493323  0.81501527    -0.20500
F1082       F  0.17830202  0.80229381  0.78942747    -0.21600
F1083       F  0.17244348  0.78799969  0.85380893    -0.18800
F1084       F  0.17418299  0.59515369  0.76004607    -0.18900
F1085       F  0.11455719  0.59718350  0.77709146    -0.22700
F1086       F  0.15879591  0.58544468  0.82299780    -0.24300
C1087       C  0.13058053  0.37594238  0.89944529    -0.11200
C1088       C  0.12505325  0.36890413  0.85930958     0.11400
C1089       C  0.09497029  0.38812224  0.83981882    -0.03000
C1090       C  0.07194618  0.41454091  0.86113579    -0.05700
C1091       C  0.07789430  0.42269910  0.90137270    -0.16500
C1092       C  0.10870358  0.40348646  0.92051083     0.02400
C1093       C  0.15302651  0.34364002  0.83818858     0.12400
C1094       C  0.08716315  0.38061672  0.79662182     0.63000
H1095       H  0.04914937  0.42937660  0.84614880     0.12400
C1096       C  0.12074947  0.41393369  0.96202254     0.55100
H1097       H  0.15356423  0.36070866  0.91383471     0.08200
C1098       C  0.18784867  0.35947320  0.82695410    -0.05600
C1099       C  0.21254480  0.33479178  0.80617013    -0.06300
C1100       C  0.20463560  0.29447388  0.79734133    -0.15900
C1101       C  0.17042426  0.27812933  0.80991581    -0.01500
C1102       C  0.14520059  0.30302052  0.83031248    -0.09000
C1103       C  0.19880448  0.40249165  0.83655286     0.65200
H1104       H  0.23847679  0.34706173  0.79609977     0.10700
C1105       C  0.16022372  0.23498617  0.80104469     0.63600
H1106       H  0.11882429  0.29110909  0.83982441     0.08000
F1107       F  0.12519839  0.45512123  0.96446512    -0.19400
F1108       F  0.15428031  0.39638404  0.97240879    -0.15600
F1109       F  0.09460010  0.40071508  0.98862497    -0.19100
F1110       F  0.07931351  0.34039656  0.79116088    -0.22500
F1111       F  0.11765242  0.39102686  0.77442570    -0.24000
F1112       F  0.05717082  0.40283229  0.78312308    -0.18000
F1113       F  0.15573435  0.23015509  0.76099574    -0.20500
F1114       F  0.12754096  0.22378009  0.81906739    -0.21600
F1115       F  0.18794059  0.20963091  0.81438598    -0.18800
F1116       F  0.17356872  0.42894377  0.81983787    -0.18900
F1117       F  0.23364573  0.41203173  0.82261133    -0.22700
F1118       F  0.19957612  0.40790933  0.87682518    -0.24300
C1119       C  0.17105947  0.36656326  0.69286856    -0.11200
C1120       C  0.14308669  0.34426236  0.67419876     0.11400
C1121       C  0.14667170  0.30177496  0.67308271    -0.03000
C1122       C  0.17615767  0.28361781  0.69418151    -0.05700
C1123       C  0.20525213  0.30619331  0.71076472    -0.16500
C1124       C  0.20358654  0.34871557  0.70727848     0.02400
C1125       C  0.11574782  0.36839308  0.65073867     0.12400
C1126       C  0.12171982  0.27417043  0.64935431     0.63000
H1127       H  0.17788383  0.25112442  0.69526925     0.12400
C1128       C  0.23544600  0.37718942  0.71445560     0.55100
H1129       H  0.16924267  0.39913093  0.69234108     0.08200
C1130       C  0.07731150  0.37202732  0.65910838    -0.05600
C1131       C  0.05611106  0.40073016  0.63795721    -0.06300
C1132       C  0.07241077  0.42750399  0.61105700    -0.15900
C1133       C  0.11111662  0.42493274  0.60435799    -0.01500
C1134       C  0.13119021  0.39373391  0.62214470    -0.09000
C1135       C  0.05696863  0.34677248  0.68925227     0.65200
H1136       H  0.02651221  0.40259189  0.64292365     0.10700
C1137       C  0.13389684  0.45539526  0.58148732     0.63600
H1138       H  0.16059130  0.39127923  0.61607404     0.08000
F1139       F  0.22683630  0.40323966  0.74447927    -0.19400
F1140       F  0.24168095  0.39950134  0.68064682    -0.15600
F1141       F  0.26762682  0.35753024  0.72349078    -0.19100
F1142       F  0.09545863  0.29443891  0.62710142    -0.22500
F1143       F  0.10374638  0.24804839  0.67458348    -0.24000
F1144       F  0.14319016  0.25198834  0.62388675    -0.18000
F1145       F  0.16305626  0.46841465  0.60490371    -0.20500
F1146       F  0.11425164  0.48900077  0.56999827    -0.21600
F1147       F  0.14831453  0.43725336  0.54858209    -0.18800
F1148       F  0.03183526  0.32220177  0.67005124    -0.18900
F1149       F  0.03764988  0.37169583  0.71413524    -0.22700
F1150       F  0.08023681  0.32305580  0.71194720    -0.24300
C1151       C  0.84773570  0.28566251  0.63919289    -0.11200
C1152       C  0.87377388  0.31249928  0.65514239     0.11400
C1153       C  0.88175541  0.30944656  0.69602551    -0.03000
C1154       C  0.86053800  0.28283714  0.71959274    -0.05700
C1155       C  0.82810554  0.26415746  0.70518307    -0.16500
C1156       C  0.82719439  0.25917113  0.66341456     0.02400
C1157       C  0.89112024  0.34415695  0.62912821     0.12400
C1158       C  0.91110698  0.33577229  0.71516636     0.63000
H1159       H  0.86916188  0.27744205  0.74943303     0.12400
C1160       C  0.81089600  0.22239802  0.64359154     0.55100
H1161       H  0.84415326  0.28446461  0.60751470     0.08200
C1162       C  0.92277394  0.33754570  0.60550915    -0.05600
C1163       C  0.93813514  0.37023662  0.58395117    -0.06300
C1164       C  0.92189127  0.40886933  0.58343302    -0.15900
C1165       C  0.88896028  0.41459954  0.60596395    -0.01500
C1166       C  0.87474336  0.38227950  0.62847273    -0.09000
C1167       C  0.93946762  0.29585303  0.60202750     0.65200
H1168       H  0.96267705  0.36554078  0.56648846     0.10700
C1169       C  0.86878320  0.45469119  0.60754995     0.63600
H1170       H  0.85033376  0.38646685  0.64624216     0.08000
F1171       F  0.79805508  0.19454558  0.67062603    -0.19400
F1172       F  0.83817194  0.20375573  0.62191510    -0.15600
F1173       F  0.78247903  0.23357310  0.61817382    -0.19100
F1174       F  0.90042339  0.37558249  0.71244621    -0.22500
F1175       F  0.94469983  0.33116548  0.69661552    -0.24000
F1176       F  0.91623770  0.32630013  0.75456016    -0.18000
F1177       F  0.85490719  0.46456758  0.57066540    -0.20500
F1178       F  0.89275285  0.48425801  0.62045805    -0.21600
F1179       F  0.83914838  0.45376277  0.63314140    -0.18800
F1180       F  0.97112154  0.29607619  0.57932446    -0.18900
F1181       F  0.91396700  0.27045489  0.58454985    -0.22700
F1182       F  0.94880916  0.28069795  0.63873080    -0.24300
C1183       C  0.92092421  0.34857859  0.88220168    -0.11200
C1184       C  0.88308313  0.34396519  0.88904494     0.11400
C1185       C  0.86718913  0.36421293  0.92134530    -0.03000
C1186       C  0.88895427  0.39218782  0.94262668    -0.05700
C1187       C  0.92594826  0.40087976  0.93255709    -0.16500
C1188       C  0.94244937  0.37736787  0.90234370     0.02400
C1189       C  0.86064749  0.32230953  0.85838994     0.12400
C1190       C  0.82707195  0.35748821  0.93229480     0.63000
H1191       H  0.87649410  0.40906595  0.96621401     0.12400
C1192       C  0.98121575  0.38507259  0.88799834     0.55100
H1193       H  0.93264114  0.33180226  0.85810103     0.08200
C1194       C  0.85186836  0.34101661  0.82189708    -0.05600
C1195       C  0.83168432  0.31927639  0.79348474    -0.06300
C1196       C  0.81930841  0.27971768  0.79973431    -0.15900
C1197       C  0.83019973  0.26021619  0.83538750    -0.01500
C1198       C  0.85046972  0.28194368  0.86416349    -0.09000
C1199       C  0.86267350  0.38438641  0.81327105     0.65200
H1200       H  0.82475091  0.33351903  0.76586038     0.10700
C1201       C  0.82234885  0.21643272  0.84419442     0.63600
H1202       H  0.85869509  0.26708073  0.89134863     0.08000
F1203       F  0.99134075  0.35948774  0.85794984    -0.19400
F1204       F  0.00618204  0.37957365  0.91861376    -0.15600
F1205       F  0.98271645  0.42378991  0.87343438    -0.19100
F1206       F  0.82084316  0.31705370  0.93899244    -0.22500
F1207       F  0.80435688  0.37060735  0.90204313    -0.24000
F1208       F  0.81757825  0.37811360  0.96599440    -0.18000
F1209       F  0.85534792  0.19692956  0.85273334    -0.20500
F1210       F  0.80579057  0.19681815  0.81296741    -0.21600
F1211       F  0.79959890  0.21368431  0.87660458    -0.18800
F1212       F  0.84821295  0.39788661  0.77769142    -0.18900
F1213       F  0.90076706  0.38787733  0.81156938    -0.22700
F1214       F  0.84950642  0.40918301  0.84248347    -0.24300
C1215       C  0.87554417  0.59029517  0.83931217    -0.11200
C1216       C  0.86716305  0.62754704  0.85667129     0.11400
C1217       C  0.88454851  0.63823406  0.89250338    -0.03000
C1218       C  0.90966359  0.61126606  0.90962164    -0.05700
C1219       C  0.91645990  0.57271537  0.89415931    -0.16500
C1220       C  0.89995819  0.56236930  0.85759762     0.02400
C1221       C  0.83856101  0.65344636  0.83782802     0.12400
C1222       C  0.87689804  0.67650812  0.91538304     0.63000
H1223       H  0.92291679  0.62010549  0.93701647     0.12400
C1224       C  0.90714083  0.52206465  0.83859524     0.55100
H1225       H  0.86193546  0.58288471  0.81175037     0.08200
C1226       C  0.84785339  0.68621220  0.81342689    -0.05600
C1227       C  0.81915824  0.71002891  0.79775237    -0.06300
C1228       C  0.78133745  0.70047006  0.80276393    -0.15900
C1229       C  0.77225868  0.66967389  0.83081395    -0.01500
C1230       C  0.80142721  0.64639567  0.84709448    -0.09000
C1231       C  0.88791665  0.69599599  0.80403311     0.65200
H1232       H  0.82620841  0.73564187  0.77951258     0.10700
C1233       C  0.73332323  0.66142375  0.84581141     0.63600
H1234       H  0.79569050  0.62236992  0.86778988     0.08000
F1235       F  0.88804823  0.51813914  0.80329069    -0.19400
F1236       F  0.89601112  0.49137477  0.86344808    -0.15600
F1237       F  0.94454402  0.51813018  0.83103380    -0.19100
F1238       F  0.85123943  0.70170389  0.89765768    -0.22500
F1239       F  0.90962019  0.69765835  0.92013343    -0.24000
F1240       F  0.86367233  0.66627883  0.95216720    -0.18000
F1241       F  0.73210077  0.62766862  0.86980868    -0.20500
F1242       F  0.70880710  0.65482039  0.81522371    -0.21600
F1243       F  0.72168312  0.69351535  0.86819695    -0.18800
F1244       F  0.89061095  0.72472486  0.77455059    -0.18900
F1245       F  0.90604901  0.66189276  0.79163861    -0.22700
F1246       F  0.90569378  0.71038853  0.83721807    -0.24300
C1247       C  0.86615413  0.62904383  0.61283055    -0.11200
C1248       C  0.87857799  0.63714013  0.65102556     0.11400
C1249       C  0.91015990  0.61634622  0.66585845    -0.03000
C1250       C  0.92867737  0.58865914  0.64137582    -0.05700
C1251       C  0.91656981  0.58099895  0.60268375    -0.16500
C1252       C  0.88437657  0.60171657  0.58818212     0.02400
C1253       C  0.85369874  0.66220691  0.67605492     0.12400
C1254       C  0.92380294  0.62292743  0.70759269     0.63000
H1255       H  0.95275112  0.57266656  0.65240721     0.12400
C1256       C  0.86814268  0.59489660  0.54718096     0.55100
H1257       H  0.84120603  0.64412319  0.60266980     0.08200
C1258       C  0.84958223  0.70443708  0.67178928    -0.05600
C1259       C  0.82062440  0.72426882  0.69198746    -0.06300
C1260       C  0.79465734  0.70315150  0.71488062    -0.15900
C1261       C  0.79859759  0.66016165  0.71749293    -0.01500
C1262       C  0.82873475  0.64135450  0.69947482    -0.09000
C1263       C  0.87552384  0.72827727  0.64572331     0.65200
H1264       H  0.81767839  0.75652239  0.68947888     0.10700
C1265       C  0.77114619  0.63081146  0.73512967     0.63600
H1266       H  0.83117265  0.60886862  0.70114273     0.08000
F1267       F  0.89137662  0.61118063  0.51915183    -0.19400
F1268       F  0.83380846  0.61295173  0.54232785    -0.15600
F1269       F  0.86352858  0.55421685  0.54058816    -0.19100
F1270       F  0.89812069  0.60784456  0.73372001    -0.22500
F1271       F  0.92866914  0.66354132  0.71413111    -0.24000
F1272       F  0.95731570  0.60387887  0.71484040    -0.18000
F1273       F  0.76032595  0.60338834  0.70678362    -0.20500
F1274       F  0.73977210  0.64870565  0.74848562    -0.21600
F1275       F  0.78781229  0.61006002  0.76590963    -0.18800
F1276       F  0.86884082  0.76915772  0.64787834    -0.18900
F1277       F  0.87094989  0.71676061  0.60697619    -0.22700
F1278       F  0.91182446  0.72137244  0.65721912    -0.24300
C1279       C  0.63662505  0.18376170  0.81474361    -0.11200
C1280       C  0.64891899  0.16578484  0.84947599     0.11400
C1281       C  0.68686804  0.16845127  0.86008528    -0.03000
C1282       C  0.71119563  0.19008754  0.83518227    -0.05700
C1283       C  0.69928951  0.20693194  0.79900383    -0.16500
C1284       C  0.66043556  0.20492486  0.78981732     0.02400
C1285       C  0.62112238  0.14196122  0.87177116     0.12400
C1286       C  0.70183975  0.14638386  0.89606979     0.63000
H1287       H  0.74025451  0.19185975  0.84267132     0.12400
C1288       C  0.64098472  0.22504476  0.75559895     0.55100
H1289       H  0.60745215  0.18129957  0.80697931     0.08200
C1290       C  0.59598922  0.15986979  0.89822736    -0.05600
C1291       C  0.56897983  0.13548482  0.91619881    -0.06300
C1292       C  0.56534327  0.09443796  0.90744382    -0.15900
C1293       C  0.58925202  0.07727753  0.87927399    -0.01500
C1294       C  0.61668716  0.10143967  0.86182121    -0.09000
C1295       C  0.59744509  0.20451497  0.90719675     0.65200
H1296       H  0.55062519  0.14821542  0.93788136     0.10700
C1297       C  0.58729790  0.03328951  0.86930866     0.63600
H1298       H  0.63532046  0.08878634  0.84036838     0.08000
F1299       F  0.61364500  0.25032778  0.76944138    -0.19400
F1300       F  0.62472842  0.19644977  0.73165681    -0.15600
F1301       F  0.66447164  0.24740592  0.73371675    -0.19100
F1302       F  0.69670941  0.10550578  0.89147221    -0.22500
F1303       F  0.68346591  0.15865682  0.92938377    -0.24000
F1304       F  0.73931416  0.15334138  0.90176519    -0.18000
F1305       F  0.55159303  0.02363788  0.85793749    -0.20500
F1306       F  0.59761025  0.01130894  0.90209072    -0.21600
F1307       F  0.61081117  0.02319400  0.83895083    -0.18800
F1308       F  0.57028613  0.21566617  0.93349866    -0.18900
F1309       F  0.59208828  0.22648446  0.87297059    -0.22700
F1310       F  0.63146705  0.21436393  0.92338486    -0.24300
C1311       C  0.67413129  0.12404002  0.71276728    -0.11200
C1312       C  0.66217366  0.13058322  0.67367975     0.11400
C1313       C  0.68284391  0.15915582  0.65138888    -0.03000
C1314       C  0.70559844  0.18703961  0.67122464    -0.05700
C1315       C  0.71486156  0.18277113  0.71144929    -0.16500
C1316       C  0.70394180  0.14585509  0.72935057     0.02400
C1317       C  0.62681590  0.11191646  0.65704184     0.12400
C1318       C  0.68264240  0.16113595  0.60668256     0.63000
H1319       H  0.71635164  0.21153959  0.65406509     0.12400
C1320       C  0.72592769  0.12468174  0.76148100     0.55100
H1321       H  0.66155992  0.10154863  0.73066585     0.08200
C1322       C  0.61624976  0.07044511  0.65912998    -0.05600
C1323       C  0.58658783  0.05671788  0.63491982    -0.06300
C1324       C  0.56758725  0.08224667  0.60863821    -0.15900
C1325       C  0.57622620  0.12393875  0.60902800    -0.01500
C1326       C  0.60385285  0.13786629  0.63491966    -0.09000
C1327       C  0.63464276  0.04028264  0.68673876     0.65200
H1328       H  0.57875899  0.02531077  0.63519419     0.10700
C1329       C  0.55879407  0.15575079  0.58244754     0.63600
H1330       H  0.60956040  0.16983380  0.63548653     0.08000
F1331       F  0.73886237  0.08863353  0.74689876    -0.19400
F1332       F  0.70344472  0.11617804  0.79311486    -0.15600
F1333       F  0.75632399  0.14656497  0.77383306    -0.19100
F1334       F  0.66410268  0.19529970  0.59405955    -0.22500
F1335       F  0.66652777  0.12766538  0.58972669    -0.24000
F1336       F  0.71878359  0.16301654  0.59350318    -0.18000
F1337       F  0.54324376  0.18537561  0.60542361    -0.20500
F1338       F  0.53169159  0.14128216  0.55761259    -0.21600
F1339       F  0.58608348  0.17296098  0.55951069    -0.18800
F1340       F  0.62392137  0.00133470  0.67838527    -0.18900
F1341       F  0.62392113  0.04768131  0.72494224    -0.22700
F1342       F  0.67278428  0.04232045  0.68375537    -0.24300
C1343       C  0.30519152  0.18713748  0.62021111    -0.11200
C1344       C  0.31511258  0.14784746  0.62967144     0.11400
C1345       C  0.29869080  0.12895145  0.66263373    -0.03000
C1346       C  0.27929585  0.15318927  0.68977284    -0.05700
C1347       C  0.27556963  0.19507315  0.68382621    -0.16500
C1348       C  0.28178026  0.20921419  0.64449541     0.02400
C1349       C  0.34656222  0.13030512  0.60787973     0.12400
C1350       C  0.30272941  0.08401883  0.66955497     0.63000
H1351       H  0.26933390  0.13993901  0.71674323     0.12400
C1352       C  0.26001987  0.24209456  0.62368245     0.55100
H1353       H  0.31456360  0.20008341  0.59265095     0.08200
C1354       C  0.34283679  0.10733907  0.57311269    -0.05600
C1355       C  0.37518355  0.09326449  0.55490296    -0.06300
C1356       C  0.41084391  0.10264244  0.56927465    -0.15900
C1357       C  0.41437196  0.12743581  0.60280676    -0.01500
C1358       C  0.38207805  0.14053335  0.62164667    -0.09000
C1359       C  0.30602654  0.09639955  0.55407757     0.65200
H1360       H  0.37256316  0.07410340  0.52930504     0.10700
C1361       C  0.45187553  0.13981456  0.61893684     0.63600
H1362       H  0.38422688  0.15915506  0.64758500     0.08000
F1363       F  0.22934967  0.25311050  0.64465290    -0.19400
F1364       F  0.24714098  0.22821433  0.58771472    -0.15600
F1365       F  0.28246345  0.27505107  0.61676129    -0.19100
F1366       F  0.33960289  0.07270529  0.66912590    -0.22500
F1367       F  0.28407922  0.06364796  0.64013355    -0.24000
F1368       F  0.28805938  0.07240242  0.70536162    -0.18000
F1369       F  0.46957080  0.16296576  0.59103401    -0.20500
F1370       F  0.47293992  0.10622562  0.62778760    -0.21600
F1371       F  0.44897357  0.16236646  0.65287853    -0.18800
F1372       F  0.30220887  0.05504395  0.55411162    -0.18900
F1373       F  0.30553111  0.11003265  0.51552476    -0.22700
F1374       F  0.27585628  0.11272680  0.57293413    -0.24300
C1375       C  0.34838257  0.13913167  0.80396424    -0.11200
C1376       C  0.33196910  0.13164327  0.84026690     0.11400
C1377       C  0.29441150  0.14256586  0.84507486    -0.03000
C1378       C  0.27564631  0.16252633  0.81393023    -0.05700
C1379       C  0.29339682  0.17604181  0.77934458    -0.16500
C1380       C  0.33098541  0.16179836  0.77366106     0.02400
C1381       C  0.35652746  0.11522099  0.87249836     0.12400
C1382       C  0.27285827  0.13545362  0.88259973     0.63000
H1383       H  0.24708236  0.17104076  0.81850570     0.12400
C1384       C  0.35537142  0.16631333  0.73749779     0.55100
H1385       H  0.37658396  0.12861839  0.80013748     0.08200
C1386       C  0.36289070  0.07361528  0.87775217    -0.05600
C1387       C  0.38934470  0.06070535  0.90605740    -0.06300
C1388       C  0.41067952  0.08782906  0.92879781    -0.15900
C1389       C  0.40391765  0.12980555  0.92343172    -0.01500
C1390       C  0.37670990  0.14250038  0.89565613    -0.09000
C1391       C  0.34256701  0.04306872  0.85252856     0.65200
H1392       H  0.39476047  0.02889642  0.90908250     0.10700
C1393       C  0.42552792  0.16152866  0.94593574     0.63600
H1394       H  0.37181253  0.17423797  0.89061257     0.08000
F1395       F  0.35690627  0.12987839  0.71866108    -0.19400
F1396       F  0.39145226  0.17560693  0.74822148    -0.15600
F1397       F  0.34384435  0.19528691  0.71148835    -0.19100
F1398       F  0.26042055  0.17193196  0.89665186    -0.22500
F1399       F  0.29348137  0.11702125  0.91203441    -0.24000
F1400       F  0.24254398  0.11142156  0.87433138    -0.18000
F1401       F  0.46211950  0.16139335  0.93417456    -0.20500
F1402       F  0.42364199  0.15387557  0.98591969    -0.21600
F1403       F  0.41160480  0.19977231  0.93920472    -0.18800
F1404       F  0.35091510  0.00398724  0.86364796    -0.18900
F1405       F  0.35240448  0.04806919  0.81357122    -0.22700
F1406       F  0.30472994  0.04833178  0.85588386    -0.24300
C1407       C  0.60320595  0.87151166  0.61605998    -0.11200
C1408       C  0.63476638  0.89237476  0.62926036     0.11400
C1409       C  0.64024295  0.93238885  0.61503692    -0.03000
C1410       C  0.61216451  0.95092667  0.59139541    -0.05700
C1411       C  0.57943923  0.93064996  0.58066129    -0.16500
C1412       C  0.57556334  0.88990022  0.59235442     0.02400
C1413       C  0.65929205  0.87189649  0.65999127     0.12400
C1414       C  0.67551257  0.95555787  0.62419351     0.63000
H1415       H  0.61548900  0.98159007  0.58119914     0.12400
C1416       C  0.54210812  0.86586582  0.57956264     0.55100
H1417       H  0.59993315  0.84056955  0.62541309     0.08200
C1418       C  0.64520651  0.85867104  0.69689370    -0.05600
C1419       C  0.66710964  0.83337045  0.72129157    -0.06300
C1420       C  0.70446617  0.82438804  0.71312637    -0.15900
C1421       C  0.71983472  0.84199631  0.67859981    -0.01500
C1422       C  0.69645879  0.86274947  0.65158329    -0.09000
C1423       C  0.60638680  0.86877766  0.71061011     0.65200
H1424       H  0.65410167  0.81944657  0.74642756     0.10700
C1425       C  0.76077815  0.84069968  0.66902564     0.63600
H1426       H  0.70764694  0.87161638  0.62346867     0.08000
F1427       F  0.51049858  0.88269307  0.59512927    -0.19400
F1428       F  0.54400171  0.82635890  0.59213623    -0.15600
F1429       F  0.53989468  0.86602435  0.53891279    -0.19100
F1430       F  0.70467635  0.93938207  0.60358796    -0.22500
F1431       F  0.68351621  0.95389217  0.66406181    -0.24000
F1432       F  0.67248460  0.99555128  0.61319369    -0.18000
F1433       F  0.76613473  0.81787064  0.63570287    -0.20500
F1434       F  0.78212334  0.82517868  0.69947583    -0.21600
F1435       F  0.77312649  0.87935849  0.66168212    -0.18800
F1436       F  0.60560310  0.87117998  0.75126616    -0.18900
F1437       F  0.58209003  0.83901722  0.69874178    -0.22700
F1438       F  0.59450667  0.90546267  0.69585617    -0.24300
C1439       C  0.68947515  0.87650294  0.83300923    -0.11200
C1440       C  0.66163874  0.86150902  0.85766317     0.11400
C1441       C  0.65540538  0.81969511  0.85937217    -0.03000
C1442       C  0.67396703  0.79493409  0.83278122    -0.05700
C1443       C  0.70045603  0.80959724  0.80582925    -0.16500
C1444       C  0.71087937  0.85078617  0.80921293     0.02400
C1445       C  0.63596454  0.88953672  0.87779773     0.12400
C1446       C  0.62823711  0.80114438  0.88841559     0.63000
H1447       H  0.66591962  0.76398067  0.83256001     0.12400
C1448       C  0.74526665  0.86859627  0.79070082     0.55100
H1449       H  0.69497009  0.90851692  0.83283211     0.08200
C1450       C  0.64348043  0.90659662  0.91516372    -0.05600
C1451       C  0.61446122  0.92637050  0.93493486    -0.06300
C1452       C  0.57872044  0.92922238  0.91835725    -0.15900
C1453       C  0.57176211  0.91305349  0.88059625    -0.01500
C1454       C  0.60089736  0.89461144  0.86046511    -0.09000
C1455       C  0.68171974  0.90371895  0.93397390     0.65200
H1456       H  0.61915754  0.93890102  0.96390066     0.10700
C1457       C  0.53327888  0.91360091  0.86239036     0.63600
H1458       H  0.59587845  0.88134131  0.83188005     0.08000
F1459       F  0.76349873  0.89250093  0.81788815    -0.19400
F1460       F  0.73532720  0.89217752  0.75868442    -0.15600
F1461       F  0.77008096  0.83943945  0.77918826    -0.19100
F1462       F  0.59238843  0.81223769  0.87878585    -0.22500
F1463       F  0.63623991  0.81391362  0.92615138    -0.24000
F1464       F  0.63005364  0.75958725  0.88864661    -0.18000
F1465       F  0.52127548  0.95273324  0.85849271    -0.20500
F1466       F  0.50915597  0.89252339  0.88621919    -0.21600
F1467       F  0.53248804  0.89629490  0.82544063    -0.18800
F1468       F  0.68289846  0.92187558  0.97052808    -0.18900
F1469       F  0.70722310  0.92265099  0.91010974    -0.18500
F1470       F  0.69195253  0.86397624  0.93884927    -0.24300
C1471       C  0.31347657  0.88416207  0.80502127    -0.11200
C1472       C  0.33952265  0.86832780  0.83212142     0.11400
C1473       C  0.33945930  0.82651892  0.83964307    -0.03000
C1474       C  0.31299702  0.80233941  0.82051274    -0.05700
C1475       C  0.28930681  0.81698518  0.79051446    -0.16500
C1476       C  0.28878386  0.85916204  0.78352427     0.02400
C1477       C  0.36620651  0.89553318  0.85319453     0.12400
C1478       C  0.36858442  0.80697917  0.86622735     0.63000
H1479       H  0.31263925  0.77095266  0.82729891     0.12400
C1480       C  0.26228857  0.87965629  0.75498557     0.55100
H1481       H  0.31306901  0.91633192  0.79988978     0.08200
C1482       C  0.40003001  0.90911841  0.83666230    -0.05600
C1483       C  0.42636473  0.92802924  0.86117174    -0.06300
C1484       C  0.42024225  0.93473396  0.90137729    -0.15900
C1485       C  0.38484378  0.92496085  0.91691788    -0.01500
C1486       C  0.35877626  0.90498145  0.89260037    -0.09000
C1487       C  0.41047139  0.90455236  0.79379666     0.65200
H1488       H  0.45241235  0.93739134  0.84851902     0.10700
C1489       C  0.37361088  0.93696132  0.95819683     0.63600
H1490       H  0.33241285  0.89556366  0.90451417     0.08000
F1491       F  0.28232552  0.89778238  0.72527994    -0.19400
F1492       F  0.24265593  0.90887979  0.77471015    -0.15600
F1493       F  0.23694828  0.85359081  0.73827043    -0.19100
F1494       F  0.36425389  0.81958861  0.90456704    -0.22500
F1495       F  0.40362339  0.81738891  0.85351132    -0.24000
F1496       F  0.36618493  0.76545755  0.86590587    -0.18000
F1497       F  0.33650865  0.92932824  0.96505814    -0.20500
F1498       F  0.37951969  0.97757523  0.96352792    -0.21600
F1499       F  0.39394643  0.91573070  0.98575127    -0.18800
F1500       F  0.38309104  0.88715394  0.77117482    -0.18900
F1501       F  0.44208859  0.88124150  0.79128019    -0.22700
F1502       F  0.41776326  0.94212349  0.77802162    -0.24300
C1503       C  0.39121316  0.84468970  0.58817916    -0.11200
C1504       C  0.37392912  0.86554967  0.61894940     0.11400
C1505       C  0.38358300  0.90612075  0.62561900    -0.03000
C1506       C  0.40931776  0.92470586  0.60058841    -0.05700
C1507       C  0.42649493  0.90440151  0.56928864    -0.16500
C1508       C  0.41746484  0.86334069  0.56309409     0.02400
C1509       C  0.34846198  0.84338192  0.64612532     0.12400
C1510       C  0.36731681  0.92964601  0.65959323     0.63000
H1511       H  0.41662274  0.95579039  0.60575993     0.12400
C1512       C  0.43522737  0.83903120  0.53069380     0.55100
H1513       H  0.38430996  0.81328365  0.58439873     0.08200
C1514       C  0.31008956  0.83829100  0.63855551    -0.05600
C1515       C  0.28800206  0.81829030  0.66690263    -0.06300
C1516       C  0.30320843  0.80148145  0.70165562    -0.15900
C1517       C  0.34256828  0.80417960  0.70715532    -0.01500
C1518       C  0.36382191  0.82643154  0.68022497    -0.09000
C1519       C  0.29299649  0.85262621  0.60000101     0.65200
H1520       H  0.25856502  0.81460574  0.66157826     0.10700
C1521       C  0.36495083  0.78225654  0.73834278     0.63600
H1522       H  0.39347467  0.82928282  0.68507763     0.08000
F1523       F  0.41892817  0.80158764  0.52686529    -0.19400
F1524       F  0.47225623  0.83334989  0.53932946    -0.15600
F1525       F  0.43189626  0.85867147  0.49492371    -0.19100
F1526       F  0.37812372  0.91225463  0.69485069    -0.22500
F1527       F  0.32909138  0.92966501  0.65713046    -0.24000
F1528       F  0.37907539  0.96925269  0.65971733    -0.18000
F1529       F  0.39121372  0.75827452  0.72057776    -0.20500
F1530       F  0.34359294  0.75815094  0.76126473    -0.21600
F1531       F  0.38303002  0.80944598  0.76223252    -0.18800
F1532       F  0.25520357  0.84564280  0.59852084    -0.18900
F1533       F  0.30913467  0.83239625  0.56914615    -0.22700
F1534       F  0.29879763  0.89336892  0.59504304    -0.24300
C1535       C  0.35001072  0.58192240  0.89124846    -0.11200
C1536       C  0.35691656  0.62239956  0.89954271     0.11400
C1537       C  0.37940658  0.63335990  0.93192888    -0.03000
C1538       C  0.39869019  0.60282750  0.95189661    -0.05700
C1539       C  0.39480258  0.56256909  0.94070384    -0.16500
C1540       C  0.36849932  0.55137744  0.91181762     0.02400
C1541       C  0.33956683  0.65217445  0.87345922     0.12400
C1542       C  0.38302122  0.67675749  0.94501280     0.63000
H1543       H  0.41816286  0.61026047  0.97521078     0.12400
C1544       C  0.35944218  0.50764695  0.90356103     0.55100
H1545       H  0.33085942  0.57455328  0.86766230     0.08200
C1546       C  0.35547330  0.66300319  0.83741763    -0.05600
C1547       C  0.33441113  0.68636944  0.81127331    -0.06300
C1548       C  0.29716697  0.69738104  0.81846527    -0.15900
C1549       C  0.28329703  0.68965815  0.85727720    -0.01500
C1550       C  0.30464633  0.66607538  0.88332855    -0.09000
C1551       C  0.39383111  0.64833795  0.82578107     0.65200
H1552       H  0.34722233  0.69435903  0.78408293     0.10700
C1553       C  0.24710950  0.70547453  0.87301836     0.63600
H1554       H  0.29414320  0.65742887  0.91190658     0.08000
F1555       F  0.38955766  0.48860742  0.88726977    -0.19400
F1556       F  0.32984195  0.50391432  0.87760919    -0.15600
F1557       F  0.35016649  0.48845841  0.93834007    -0.19100
F1558       F  0.34850154  0.69167931  0.95445959    -0.22500
F1559       F  0.39778014  0.70000532  0.91523499    -0.24000
F1560       F  0.40573492  0.68030625  0.97787580    -0.18000
F1561       F  0.21888974  0.69639204  0.84734700    -0.20500
F1562       F  0.24972065  0.74637968  0.87900412    -0.21600
F1563       F  0.23823288  0.68855680  0.90903853    -0.18800
F1564       F  0.40434698  0.66327656  0.78946923    -0.18900
F1565       F  0.39413773  0.60687345  0.82377830    -0.22700
F1566       F  0.41995600  0.66049114  0.85317071    -0.24300
C1567       C  0.32564066  0.60467488  0.72057342    -0.11200
C1568       C  0.34727937  0.61694786  0.68897322     0.11400
C1569       C  0.35047705  0.65789716  0.67878227    -0.03000
C1570       C  0.33079692  0.68562556  0.70075381    -0.05700
C1571       C  0.30590943  0.67361402  0.73007150    -0.16500
C1572       C  0.30378250  0.63206693  0.74107150     0.02400
C1573       C  0.36544963  0.58645409  0.66546435     0.12400
C1574       C  0.37317057  0.67215514  0.64374707     0.63000
H1575       H  0.33304269  0.71711681  0.69333824     0.12400
C1576       C  0.27758791  0.61345172  0.77097791     0.55100
H1577       H  0.32412602  0.57289030  0.72766207     0.08200
C1578       C  0.40196490  0.57438699  0.67429543    -0.05600
C1579       C  0.42238079  0.55663815  0.64446355    -0.06300
C1580       C  0.40630809  0.54945532  0.60755623    -0.15900
C1581       C  0.36804446  0.55590457  0.60080250    -0.01500
C1582       C  0.34798178  0.57491818  0.63034940    -0.09000
C1583       C  0.41926748  0.58157451  0.71446676     0.65200
H1584       H  0.45126718  0.54901113  0.64938744     0.10700
C1585       C  0.34918937  0.54498711  0.56214608     0.63600
H1586       H  0.31938133  0.58361485  0.62527679     0.08000
F1587       F  0.29799406  0.59908014  0.80265149    -0.19400
F1588       F  0.25897846  0.58144530  0.75402934    -0.15600
F1589       F  0.25108729  0.63944301  0.78450251    -0.19100
F1590       F  0.35793933  0.65739387  0.60926103    -0.22500
F1591       F  0.40933351  0.65888065  0.64736092    -0.24000
F1592       F  0.37392722  0.71365253  0.64068489    -0.18000
F1593       F  0.35111603  0.50394501  0.55641282    -0.20500
F1594       F  0.36643043  0.56457256  0.53139528    -0.21600
F1595       F  0.31215116  0.55583874  0.56152921    -0.18800
F1596       F  0.42142902  0.62231120  0.72163572    -0.18900
F1597       F  0.45461289  0.56560640  0.71729920    -0.22700
F1598       F  0.39776072  0.56355207  0.74305152    -0.24300
C1599       C  0.57864235  0.65307176  0.87129654    -0.11200
C1600       C  0.56765769  0.64756091  0.83215429     0.11400
C1601       C  0.53913793  0.61955092  0.82368352    -0.03000
C1602       C  0.52554415  0.59507311  0.85442364    -0.05700
C1603       C  0.53832289  0.59879747  0.89361287    -0.16500
C1604       C  0.56332781  0.63076186  0.90230370     0.02400
C1605       C  0.59145942  0.66671596  0.80172326     0.12400
C1606       C  0.52235564  0.61403106  0.78301699     0.63000
H1607       H  0.50537180  0.57204419  0.84732321     0.12400
C1608       C  0.57378534  0.64225255  0.94385537     0.55100
H1609       H  0.60075647  0.67423489  0.87737258     0.08200
C1610       C  0.59522374  0.70885774  0.79804275    -0.05600
C1611       C  0.62633649  0.72425328  0.77825124    -0.06300
C1612       C  0.65220503  0.69909996  0.75985966    -0.15900
C1613       C  0.64334305  0.65752773  0.75654067    -0.01500
C1614       C  0.61461934  0.64183833  0.77975256    -0.09000
C1615       C  0.56579580  0.73712444  0.81354221     0.65200
H1616       H  0.63072533  0.75634194  0.77687340     0.10700
C1617       C  0.66168309  0.62815135  0.72906102     0.63600
H1618       H  0.61030364  0.60959708  0.78089767     0.08000
F1619       F  0.59197369  0.67886521  0.94544701    -0.19400
F1620       F  0.59697711  0.61351635  0.96024608    -0.15600
F1621       F  0.54168217  0.64576743  0.96528549    -0.19100
F1622       F  0.53078657  0.57603504  0.76952602    -0.22500
F1623       F  0.53478225  0.64208163  0.75602446    -0.24000
F1624       F  0.48424995  0.61780835  0.78525473    -0.18000
F1625       F  0.63460732  0.60862790  0.70729680    -0.20500
F1626       F  0.68120716  0.59979464  0.75076917    -0.21600
F1627       F  0.68496742  0.64642131  0.70268657    -0.18800
F1628       F  0.57300734  0.77667810  0.80332492    -0.18900
F1629       F  0.56376241  0.73473202  0.85403130    -0.22700
F1630       F  0.53174973  0.72674619  0.79758911    -0.24300
C1631       C  0.66842977  0.72131111  0.60423883    -0.11200
C1632       C  0.63036149  0.71668833  0.60964999     0.11400
C1633       C  0.61493514  0.72734643  0.64627678    -0.03000
C1634       C  0.63926674  0.73594260  0.67743256    -0.05700
C1635       C  0.67710961  0.72664771  0.67496058    -0.16500
C1636       C  0.69223563  0.71928006  0.63694345     0.02400
C1637       C  0.61422912  0.68332868  0.58679540     0.12400
C1638       C  0.57345637  0.72760811  0.65332616     0.63000
H1639       H  0.62840194  0.74750683  0.70448153     0.12400
C1640       C  0.73039698  0.70140647  0.62997389     0.55100
H1641       H  0.67931906  0.71511192  0.57525087     0.08200
C1642       C  0.58350457  0.68677173  0.56112211    -0.05600
C1643       C  0.56730571  0.65124570  0.54732333    -0.06300
C1644       C  0.58434340  0.61348632  0.55294256    -0.15900
C1645       C  0.61746722  0.61066425  0.57525669    -0.01500
C1646       C  0.63082800  0.64549310  0.59314752    -0.09000
C1647       C  0.56753110  0.72635289  0.54658950     0.65200
H1648       H  0.54129660  0.65319584  0.53121425     0.10700
C1649       C  0.63746314  0.57110185  0.58249272     0.63600
H1650       H  0.65443742  0.64340922  0.61298561     0.08000
F1651       F  0.75601332  0.73132250  0.62276060    -0.19400
F1652       F  0.72998551  0.67605948  0.59777853    -0.15600
F1653       F  0.74141011  0.67833605  0.66160385    -0.19100
F1654       F  0.56522298  0.73589136  0.69217370    -0.22500
F1655       F  0.55820416  0.69065777  0.64436174    -0.24000
F1656       F  0.55701196  0.75687251  0.63023171    -0.18000
F1657       F  0.64850386  0.55500491  0.54707695    -0.20500
F1658       F  0.61417269  0.54457144  0.60144704    -0.21600
F1659       F  0.66885478  0.57577872  0.60580139    -0.18800
F1660       F  0.53160125  0.73042494  0.55978190    -0.18900
F1661       F  0.56692908  0.72652439  0.50586420    -0.22700
F1662       F  0.58812398  0.75912915  0.55868618    -0.24300
C1663       C  0.62850357  0.43860058  0.84461951    -0.11200
C1664       C  0.62694354  0.39670315  0.84930376     0.11400
C1665       C  0.60791140  0.37993605  0.88173116    -0.03000
C1666       C  0.59065859  0.40606840  0.90807137    -0.05700
C1667       C  0.59359765  0.44805560  0.90459814    -0.16500
C1668       C  0.61206643  0.46475780  0.87172435     0.02400
C1669       C  0.65174411  0.37274988  0.82431798     0.12400
C1670       C  0.60560247  0.33521594  0.89090398     0.63000
H1671       H  0.57514139  0.39330359  0.93219303     0.12400
C1672       C  0.61280472  0.50968524  0.86404889     0.55100
H1673       H  0.64371752  0.45064721  0.81986838     0.08200
C1674       C  0.64040515  0.35368125  0.78926791    -0.05600
C1675       C  0.66688177  0.33144846  0.76805415    -0.06300
C1676       C  0.70435863  0.32877736  0.78035117    -0.15900
C1677       C  0.71546408  0.35261309  0.81306229    -0.01500
C1678       C  0.68880092  0.37220561  0.83543488    -0.09000
C1679       C  0.60056695  0.35674757  0.77495635     0.65200
H1680       H  0.65794226  0.31595974  0.74205754     0.10700
C1681       C  0.75521362  0.36192949  0.82227793     0.63600
H1682       H  0.69693538  0.38851301  0.86166962     0.08000
F1683       F  0.63037994  0.51917281  0.82915190    -0.19400
F1684       F  0.63135533  0.52905004  0.89421760    -0.15600
F1685       F  0.57690707  0.52380931  0.86142835    -0.19100
F1686       F  0.62181356  0.32777690  0.92725442    -0.22500
F1687       F  0.62306890  0.31134939  0.86362833    -0.24000
F1688       F  0.56876358  0.32384957  0.89233578    -0.18000
F1689       F  0.75893122  0.39613282  0.84498743    -0.20500
F1690       F  0.77319371  0.36954618  0.78758637    -0.21600
F1691       F  0.77084743  0.33028584  0.84272433    -0.18800
F1692       F  0.59521088  0.33732385  0.73945794    -0.18900
F1693       F  0.59108401  0.39670859  0.76989593    -0.22700
F1694       F  0.57717188  0.33968573  0.80234241    -0.24300
C1695       C  0.70015356  0.37870335  0.65827667    -0.11200
C1696       C  0.66663879  0.36259398  0.64435739     0.11400
C1697       C  0.65884615  0.32134546  0.65025422    -0.03000
C1698       C  0.68499060  0.29802797  0.67067667    -0.05700
C1699       C  0.71516967  0.31551579  0.69032904    -0.16500
C1700       C  0.72471740  0.35573427  0.68137581     0.02400
C1701       C  0.64100835  0.38935870  0.62255180     0.12400
C1702       C  0.62221708  0.30240283  0.63773262     0.63000
H1703       H  0.68074649  0.26618710  0.67292105     0.12400
C1704       C  0.76099766  0.37506748  0.69312545     0.55100
H1705       H  0.70676085  0.40980398  0.65169590     0.08200
C1706       C  0.62371606  0.42297415  0.63984298    -0.05600
C1707       C  0.60199606  0.44812966  0.61577226    -0.06300
C1708       C  0.59480534  0.43959844  0.57579368    -0.15900
C1709       C  0.61204149  0.40539452  0.55896703    -0.01500
C1710       C  0.63596848  0.38202596  0.58243801    -0.09000
C1711       C  0.62722901  0.43413512  0.68306721     0.65200
H1712       H  0.58950891  0.47424215  0.62914026     0.10700
C1713       C  0.60643945  0.39364664  0.51646176     0.63600
H1714       H  0.65142660  0.35764737  0.56950634     0.08000
F1715       F  0.75432919  0.40586614  0.71921031    -0.19400
F1716       F  0.77768891  0.39088471  0.65998191    -0.15600
F1717       F  0.78545219  0.34808495  0.70997396    -0.19100
F1718       F  0.62014614  0.29927706  0.59727553    -0.22500
F1719       F  0.59307331  0.32560313  0.65077840    -0.24000
F1720       F  0.61801030  0.26419460  0.65347711    -0.18000
F1721       F  0.61980771  0.42410297  0.49279311    -0.20500
F1722       F  0.56917048  0.38701837  0.50903847    -0.21600
F1723       F  0.62519251  0.35875193  0.50704646    -0.18800
F1724       F  0.59246697  0.44201875  0.69800463    -0.18900
F1725       F  0.64864911  0.46841014  0.68640018    -0.22700
F1726       F  0.64291245  0.40424200  0.70611163    -0.24300
C1727       C  0.40767636  0.35871083  0.89345200    -0.11200
C1728       C  0.38160828  0.33453999  0.91260510     0.11400
C1729       C  0.37890506  0.33593468  0.95411341    -0.03000
C1730       C  0.39670208  0.36758439  0.97378853    -0.05700
C1731       C  0.42062230  0.39374509  0.95375105    -0.16500
C1732       C  0.42928584  0.38642529  0.91374105     0.02400
C1733       C  0.35760009  0.31063125  0.88634410     0.12400
C1734       C  0.36027429  0.30392908  0.97889485     0.63000
H1735       H  0.39281788  0.37114796  0.00518422     0.12400
C1736       C  0.46091942  0.40700018  0.89202289     0.55100
H1737       H  0.41081782  0.35582661  0.86193601     0.08200
C1738       C  0.32020713  0.32126996  0.87919577    -0.05600
C1739       C  0.30267056  0.30589039  0.84565249    -0.06300
C1740       C  0.32220528  0.28605475  0.81592574    -0.15900
C1741       C  0.35977380  0.27542496  0.82347457    -0.01500
C1742       C  0.37581940  0.28577328  0.85966365    -0.09000
C1743       C  0.29920359  0.35054474  0.90497398     0.65200
H1744       H  0.27358388  0.31155692  0.84129802     0.10700
C1745       C  0.38521447  0.25462033  0.79541765     0.63600
H1746       H  0.40470172  0.27830496  0.86525859     0.08000
F1747       F  0.45607003  0.44810698  0.89156046    -0.19400
F1748       F  0.46338333  0.39458467  0.85330857    -0.15600
F1749       F  0.49422058  0.39749665  0.91030985    -0.19100
F1750       F  0.38661682  0.28615398  0.00318417    -0.22500
F1751       F  0.34409404  0.27408688  0.95641938    -0.24000
F1752       F  0.33355114  0.32121844  0.00228808    -0.18000
F1753       F  0.41469678  0.27959832  0.78666059    -0.20500
F1754       F  0.36779208  0.24499567  0.76107488    -0.21600
F1755       F  0.39869019  0.21981459  0.81282921    -0.18800
F1756       F  0.29204261  0.33301759  0.94092523    -0.18900
F1757       F  0.26551341  0.36139265  0.88830540    -0.22700
F1758       F  0.31949004  0.38536024  0.91038918    -0.24300
C1759       C  0.38240244  0.35916223  0.71253160    -0.11200
C1760       C  0.39393883  0.34055110  0.67790034     0.11400
C1761       C  0.37900584  0.30301232  0.66734538    -0.03000
C1762       C  0.34963094  0.28780042  0.68939367    -0.05700
C1763       C  0.33570318  0.30730276  0.72294865    -0.16500
C1764       C  0.35291080  0.34393385  0.73506991     0.02400
C1765       C  0.41615054  0.36455218  0.65010434     0.12400
C1766       C  0.39125013  0.27948864  0.63155603     0.63000
H1767       H  0.33718294  0.26003541  0.67971991     0.12400
C1768       C  0.34083542  0.37029921  0.76890748     0.55100
H1769       H  0.39473733  0.38779889  0.72028040     0.08200
C1770       C  0.39969545  0.38433490  0.61720944    -0.05600
C1771       C  0.42253731  0.40606890  0.59189821    -0.06300
C1772       C  0.46037964  0.41137814  0.59971335    -0.15900
C1773       C  0.47689349  0.39205260  0.63257441    -0.01500
C1774       C  0.45441606  0.36831381  0.65719063    -0.09000
C1775       C  0.35837360  0.38588320  0.60790615     0.65200
H1776       H  0.40997259  0.42141965  0.56685342     0.10700
C1777       C  0.51791958  0.39596683  0.64087255     0.63600
H1778       H  0.46635524  0.35296045  0.68249409     0.08000
F1779       F  0.33828567  0.40985181  0.75628938    -0.19400
F1780       F  0.36707271  0.36803802  0.79873774    -0.15600
F1781       F  0.30685560  0.36015236  0.78374715    -0.19100
F1782       F  0.39407962  0.23914145  0.64115926    -0.22500
F1783       F  0.42539882  0.29176380  0.61782965    -0.24000
F1784       F  0.36521784  0.28397586  0.60173813    -0.18000
F1785       F  0.52897515  0.37300221  0.67299966    -0.20500
F1786       F  0.52637590  0.43561404  0.64860170    -0.21600
F1787       F  0.53741484  0.38323283  0.60841509    -0.18800
F1788       F  0.34695272  0.42557799  0.60738700    -0.18900
F1789       F  0.33658363  0.36553253  0.63454743    -0.22700
F1790       F  0.35207982  0.36977649  0.57106052    -0.24300
loop_ 
_geom_bond_atom_site_label_1 
_geom_bond_atom_site_label_2 
_geom_bond_distance 
_geom_bond_site_symmetry_2 
_ccdc_geom_bond_type 
O1            C9   1.266       .  A
O1          Co21   2.022       .  S
O2           C10   1.282       .  A
O2          Co22   2.031       .  S
O3           C11   1.247       .  A
O3          Co23   1.942       .  S
O4           C12   1.260       .  A
O4          Co24   1.990   1_554  S
O5           C11   1.261       .  A
O5          Co22   1.995       .  S
O6           C12   1.264       .  A
O6          Co21   1.992       .  S
O7           C10   1.276       .  A
O7         Co919   1.921       .  S
O8            C9   1.256       .  A
O8         Co918   1.987       .  S
C9          C877   1.480       .  S
C10         C772   1.472       .  S
C11         C836   1.453       .  S
C12         C813   1.494       .  S
O13          C26   1.256       .  A
O13         Co21   1.945       .  S
O14          C27   1.264       .  A
O14         Co22   2.005       .  S
O15          C28   1.268       .  A
O15        Co918   2.013       .  S
O16          C29   1.246       .  A
O16        Co919   1.973       .  S
O17          C29   1.257       .  A
O17         Co22   2.007       .  S
O18          C28   1.260       .  A
O18         Co21   1.959       .  S
O19          C26   1.271       .  A
O19         Co24   2.010   1_554  S
O20          C27   1.254       .  A
O20         Co23   1.953       .  S
Co21         O25   2.070       .  S
Co22        O920   2.180       .  S
Co23        O903   1.964       .  S
Co23        O910   1.939       .  S
Co23        O920   1.972       .  S
Co24        O902   1.920       .  S
Co24        O911   1.972       .  S
Co24         O25   1.936   1_556  S
O25        Co917   2.234   1_554  S
O25        Co918   1.940       .  S
C26         C749   1.462       .  S
C27         C644   1.472       .  S
C28         C685   1.465       .  S
C29         C708   1.508       .  S
O30          C38   1.283       .  A
O30         Co50   2.057   1_565  S
O31          C39   1.271       .  A
O31         Co51   2.046       .  S
O32          C40   1.269       .  A
O32        Co947   1.914       .  S
O33          C41   1.258       .  A
O33         Co53   1.961       .  S
O34          C40   1.292       .  A
O34         Co51   2.084   1_565  S
O35          C41   1.275       .  A
O35         Co50   2.037       .  S
O36          C39   1.253       .  A
O36        Co948   1.971       .  S
O37          C38   1.264       .  A
O37         Co52   1.971       .  S
C38         C516   1.501       .  S
C39         C397   1.493       .  S
C40         C557   1.479       .  S
C41         C429   1.488       .  S
O42          C55   1.251       .  A
O42         Co50   1.966       .  S
O43          C56   1.267       .  A
O43         Co51   1.912   1_565  S
O44          C57   1.247       .  A
O44         Co52   1.986       .  S
O45          C58   1.276       .  A
O45        Co948   2.049       .  S
O46          C58   1.260       .  A
O46         Co51   1.970       .  S
O47          C57   1.256       .  A
O47         Co50   1.986   1_565  S
O48          C55   1.268       .  A
O48         Co53   2.041       .  S
O49          C56   1.299       .  A
O49        Co947   2.125       .  S
Co50         O54   2.070       .  S
Co51        O949   2.014       .  S
Co52        O927   1.951   1_554  S
Co52        O944   2.099   1_554  S
Co52         O54   2.102   1_565  S
Co53        O931   1.963   1_554  S
Co53        O940   2.051   1_554  S
Co53         O54   2.078       .  S
O54        Co946   1.986   1_554  S
C55         C461   1.494       .  S
C56         C589   1.507       .  S
C57         C612   1.490       .  S
C58         C493   1.509       .  S
O59          C67   1.256       .  A
O59         Co79   1.965   1_554  S
O60          C68   1.258       .  A
O60        Co975   2.023       .  S
O61          C69   1.245       .  A
O61         Co81   1.978   1_455  S
O62          C70   1.272       .  A
O62         Co82   2.028       .  S
O63          C69   1.254       .  A
O63         Co80   2.007   1_554  S
O64          C70   1.257       .  A
O64        Co974   1.946       .  S
O65          C68   1.246       .  A
O65         Co82   1.987   1_455  S
O66          C67   1.277       .  A
O66         Co81   2.036       .  S
C67         C356   1.510       .  S
C68         C164   1.519       .  S
C69         C132   1.497       .  S
C70         C324   1.489       .  S
O71          C84   1.271       .  A
O71        Co974   2.019       .  S
O72          C85   1.299       .  A
O72         Co80   2.084   1_554  S
O73          C86   1.265       .  A
O73         Co81   2.009       .  S
O74          C87   1.277       .  A
O74         Co82   1.923   1_455  S
O75          C87   1.294       .  A
O75        Co975   2.066       .  S
O76          C86   1.264       .  A
O76         Co79   2.021   1_554  S
O77          C84   1.265       .  A
O77         Co82   2.003       .  S
O78          C85   1.273       .  A
O78         Co81   1.888   1_455  S
Co79        O959   1.939       .  S
Co79        O966   2.028       .  S
Co79         O83   2.079       .  S
Co80        O955   2.024       .  S
Co80        O970   2.070       .  S
Co80         O83   2.238   1_455  S
Co81         O83   1.966   1_554  S
Co82        O978   1.965       .  S
O83        Co977   1.973       .  S
C84         C292   1.513       .  S
C85         C237   1.479       .  S
C86         C269   1.520       .  S
C87         C196   1.510       .  S
C88          H89   1.110       .  S
C88          C94   1.552       .  S
C88          C93   1.559       .  S
C88          C92   1.522       .  S
C90          H91   1.097       .  S
C90          C96   1.567       .  S
C90          C95   1.570       .  S
C90          C97   1.535       .  S
C92          C95   1.386       .  D
C92         C845   1.496       .  S
C93          C96   1.399       .  D
C93         C484   1.534       .  S
C94          C97   1.359       .  D
C94         C205   1.501       .  S
C95         C868   1.507       .  S
C96         C452   1.538       .  S
C97         C228   1.505       .  S
C98          H99   1.091       .  S
C98         C104   1.555       .  S
C98         C103   1.568       .  S
C98         C102   1.542       .  S
C100        H101   1.109       .  S
C100        C106   1.554       .  S
C100        C105   1.539       .  S
C100        C107   1.573       .  S
C102        C105   1.377       .  D
C102        C804   1.486       .  S
C103        C106   1.387       .  D
C103        C420   1.527       .  S
C104        C107   1.405       .  D
C104        C260   1.559       .  S
C105        C781   1.510       .  S
C106        C388   1.535       .  S
C107        C301   1.514       .  S
C108        H109   1.100       .  S
C108        C114   1.534       .  S
C108        C113   1.540       .  S
C108        C112   1.554       .  S
C110        H111   1.091       .  S
C110        C116   1.560       .  S
C110        C115   1.553       .  S
C110        C117   1.570       .  S
C112        C115   1.394       .  D
C112        C676   1.494       .  S
C113        C116   1.380       .  D
C113        C621   1.512       .  S
C114        C117   1.383       .  D
C114        C141   1.531       .  S
C115        C653   1.534       .  S
C116        C580   1.523       .  S
C117        C173   1.517       .  S
C118        H119   1.084       .  S
C118        C124   1.529       .  S
C118        C123   1.553       .  S
C118        C122   1.566       .  S
C120        H121   1.100       .  S
C120        C126   1.556       .  S
C120        C125   1.523       .  S
C120        C127   1.560       .  S
C122        C125   1.387       .  D
C122        C717   1.509       .  S
C123        C126   1.395       .  D
C123        C548   1.530       .  S
C124        C127   1.374       .  D
C124        C333   1.518       .  S
C125        C740   1.493       .  S
C126        C525   1.526       .  S
C127        C365   1.522       .  S
C128        C129   1.399       .  A
C128        C133   1.408       .  A
C128        H138   1.083       .  S
C129        C134   1.496       .  S
C129        C130   1.418       .  A
C130        C131   1.415       .  A
C130        C135   1.517       .  S
C131        C132   1.407       .  A
C131        H136   1.083       .  S
C132        C133   1.425       .  A
C133        C137   1.517       .  S
C134        C139   1.418       .  A
C134        C143   1.392       .  A
C135        F151   1.383       .  S
C135        F152   1.385       .  S
C135        F153   1.382       .  S
C137        F148   1.378       .  S
C137        F149   1.385       .  S
C137        F150   1.381       .  S
C139        C140   1.416       .  A
C139        C144   1.515       .  S
C140        C141   1.413       .  A
C140        H145   1.084       .  S
C141        C142   1.439       .  A
C142        C143   1.406       .  A
C142        C146   1.516       .  S
C143        H147   1.084       .  S
C144        F157   1.383       .  S
C144        F158   1.383       .  S
C144        F159   1.382       .  S
C146        F154   1.386       .  S
C146        F155   1.367       .  S
C146        F156   1.378       .  S
C160        C161   1.402       .  A
C160        C165   1.419       .  A
C160        H170   1.083       .  S
C161        C166   1.510       .  S
C161        C162   1.418       .  A
C162        C163   1.414       .  A
C162        C167   1.513       .  S
C163        C164   1.409       .  A
C163        H168   1.082       .  S
C164        C165   1.432       .  A
C165        C169   1.516       .  S
C166        C171   1.418       .  A
C166        C175   1.408       .  A
C167        F183   1.382       .  S
C167        F184   1.382       .  S
C167        F185   1.384       .  S
C169        F180   1.385   1_455  S
C169        F181   1.381   1_455  S
C169        F182   1.382       .  S
C171        C172   1.413       .  A
C171        C176   1.520       .  S
C172        C173   1.411       .  A
C172        H177   1.077       .  S
C173        C174   1.422       .  A
C174        C175   1.419       .  A
C174        C178   1.515       .  S
C175        H179   1.084       .  S
C176        F189   1.385       .  S
C176        F190   1.382       .  S
C176        F191   1.382       .  S
C178        F186   1.384       .  S
C178        F187   1.382       .  S
C178        F188   1.383       .  S
C192        C193   1.399       .  A
C192        C197   1.412       .  A
C192        H202   1.083       .  S
C193        C198   1.498       .  S
C193        C194   1.414       .  A
C194        C195   1.412       .  A
C194        C199   1.515       .  S
C195        C196   1.409       .  A
C195        H200   1.081       .  S
C196        C197   1.430       .  A
C197        C201   1.519       .  S
C198        C203   1.416       .  A
C198        C207   1.407       .  A
C199        F215   1.382       .  S
C199        F216   1.383       .  S
C199        F217   1.384       .  S
C201        F212   1.384       .  S
C201        F213   1.385       .  S
C201        F214   1.383       .  S
C203        C204   1.407       .  A
C203        C208   1.522       .  S
C204        C205   1.406       .  A
C204        H209   1.080       .  S
C205        C206   1.419       .  A
C206        C207   1.415       .  A
C206        C210   1.516       .  S
C207        H211   1.084       .  S
C208        F221   1.382       .  S
C208        F222   1.384       .  S
C208        F223   1.382       .  S
C210        F218   1.381       .  S
C210        F219   1.384       .  S
C210        F220   1.383       .  S
C224        C225   1.402       .  A
C224        C229   1.398       .  A
C224        H234   1.086       .  S
C225        C230   1.498       .  S
C225        C226   1.423       .  A
C226        C227   1.412       .  A
C226        C231   1.517       .  S
C227        C228   1.408       .  A
C227        H232   1.085       .  S
C228        C229   1.422       .  A
C229        C233   1.509       .  S
C230        C235   1.426       .  A
C230        C239   1.407       .  A
C231        F247   1.380       .  S
C231        F248   1.383       .  S
C231        F249   1.384       .  S
C233        F244   1.382       .  S
C233        F245   1.385       .  S
C233        F246   1.361       .  S
C235        C236   1.411       .  A
C235        C240   1.515       .  S
C236        C237   1.403       .  A
C236        H241   1.085       .  S
C237        C238   1.415       .  A
C238        C239   1.400       .  A
C238        C242   1.521       .  S
C239        H243   1.084       .  S
C240        F253   1.383       .  S
C240        F254   1.383       .  S
C240        F255   1.378       .  S
C242        F250   1.385       .  S
C242        F251   1.383       .  S
C242        F252   1.373       .  S
C256        C257   1.404       .  A
C256        C261   1.417       .  A
C256        H266   1.084       .  S
C257        C262   1.511       .  S
C257        C258   1.418       .  A
C258        C259   1.420       .  A
C258        C263   1.519       .  S
C259        C260   1.411       .  A
C259        H264   1.071       .  S
C260        C261   1.430       .  A
C261        C265   1.516       .  S
C262        C267   1.421       .  A
C262        C271   1.399       .  A
C263        F279   1.382       .  S
C263        F280   1.380       .  S
C263        F281   1.384       .  S
C265        F276   1.384       .  S
C265        F277   1.384       .  S
C265        F278   1.384       .  S
C267        C268   1.423       .  A
C267        C272   1.518       .  S
C268        C269   1.412       .  A
C268        H273   1.083       .  S
C269        C270   1.434       .  A
C270        C271   1.414       .  A
C270        C274   1.522       .  S
C271        H275   1.082       .  S
C272        F285   1.385       .  S
C272        F286   1.382       .  S
C272        F287   1.381       .  S
C274        F282   1.382       .  S
C274        F283   1.380       .  S
C274        F284   1.385       .  S
C288        C289   1.397       .  A
C288        C293   1.411       .  A
C288        H298   1.083       .  S
C289        C294   1.496       .  S
C289        C290   1.415       .  A
C290        C291   1.413       .  A
C290        C295   1.516       .  S
C291        C292   1.412       .  A
C291        H296   1.083       .  S
C292        C293   1.429       .  A
C293        C297   1.508       .  S
C294        C299   1.416       .  A
C294        C303   1.403       .  A
C295        F311   1.383       .  S
C295        F312   1.379       .  S
C295        F313   1.385       .  S
C297        F308   1.385       .  S
C297        F309   1.383   1_655  S
C297        F310   1.375       .  S
C299        C300   1.410       .  A
C299        C304   1.523       .  S
C300        C301   1.409       .  A
C300        H305   1.077       .  S
C301        C302   1.423       .  A
C302        C303   1.414       .  A
C302        C306   1.512       .  S
C303        H307   1.084       .  S
C304        F317   1.384       .  S
C304        F318   1.382       .  S
C304        F319   1.382       .  S
C306        F314   1.383       .  S
C306        F315   1.379       .  S
C306        F316   1.382       .  S
C320        C321   1.408       .  A
C320        C325   1.414       .  A
C320        H330   1.083       .  S
C321        C326   1.477       .  S
C321        C322   1.413       .  A
C322        C323   1.394       .  A
C322        C327   1.523       .  S
C323        C324   1.410       .  A
C323        H328   1.085       .  S
C324        C325   1.419       .  A
C325        C329   1.518       .  S
C326        C331   1.413       .  A
C326        C335   1.397       .  A
C327        F343   1.380       .  S
C327        F344   1.383       .  S
C327        F345   1.384       .  S
C329        F340   1.385       .  S
C329        F341   1.384       .  S
C329        F342   1.382       .  S
C331        C332   1.402       .  A
C331        C336   1.519       .  S
C332        C333   1.411       .  A
C332        H337   1.084       .  S
C333        C334   1.435       .  A
C334        C335   1.409       .  A
C334        C338   1.523       .  S
C335        H339   1.083       .  S
C336        F349   1.382       .  S
C336        F350   1.382       .  S
C336        F351   1.383       .  S
C338        F346   1.385       .  S
C338        F347   1.371       .  S
C338        F348   1.382       .  S
C352        C353   1.397       .  A
C352        C357   1.409       .  A
C352        H362   1.083       .  S
C353        C358   1.498       .  S
C353        C354   1.420       .  A
C354        C355   1.414       .  A
C354        C359   1.520       .  S
C355        C356   1.410       .  A
C355        H360   1.082       .  S
C356        C357   1.435       .  A
C357        C361   1.524       .  S
C358        C363   1.423       .  A
C358        C367   1.391       .  A
C359        F375   1.381       .  S
C359        F376   1.382       .  S
C359        F377   1.385       .  S
C361        F372   1.384       .  S
C361        F373   1.385       .  S
C361        F374   1.383       .  S
C363        C364   1.419       .  A
C363        C368   1.515       .  S
C364        C365   1.408       .  A
C364        H369   1.083       .  S
C365        C366   1.436       .  A
C366        C367   1.399       .  A
C366        C370   1.513       .  S
C367        H371   1.085       .  S
C368        F381   1.384       .  S
C368        F382   1.383       .  S
C368        F383   1.383       .  S
C370        F378   1.385       .  S
C370        F379   1.359       .  S
C370        F380   1.383       .  S
C384        C385   1.392       .  A
C384        C389   1.405       .  A
C384        H394   1.085       .  S
C385        C390   1.505       .  S
C385        C386   1.420       .  A
C386        C387   1.424       .  A
C386        C391   1.516       .  S
C387        C388   1.411       .  A
C387        H392   1.078       .  S
C388        C389   1.437       .  A
C389        C393   1.506       .  S
C390        C395   1.422       .  A
C390        C399   1.408       .  A
C391        F407   1.382       .  S
C391        F408   1.382       .  S
C391        F409   1.384       .  S
C393        F404   1.384       .  S
C393        F405   1.382       .  S
C393        F406   1.354       .  S
C395        C396   1.415       .  A
C395        C400   1.521       .  S
C396        C397   1.405       .  A
C396        H401   1.083       .  S
C397        C398   1.416       .  A
C398        C399   1.416       .  A
C398        C402   1.514       .  S
C399        H403   1.083       .  S
C400        F413   1.385       .  S
C400        F414   1.382       .  S
C400        F415   1.382       .  S
C402        F410   1.383       .  S
C402        F411   1.382       .  S
C402        F412   1.384       .  S
C416        C417   1.408       .  A
C416        C421   1.409       .  A
C416        H426   1.075       .  S
C417        C422   1.524       .  S
C417        C418   1.429       .  A
C418        C419   1.409       .  A
C418        C423   1.520       .  S
C419        C420   1.408       .  A
C419        H424   1.078       .  S
C420        C421   1.423       .  A
C421        C425   1.514       .  S
C422        C427   1.434       .  A
C422        C431   1.407       .  A
C423        F439   1.383       .  S
C423        F440   1.383       .  S
C423        F441   1.384       .  S
C425        F436   1.383       .  S
C425        F437   1.381       .  S
C425        F438   1.379       .  S
C427        C428   1.420       .  A
C427        C432   1.519       .  S
C428        C429   1.403       .  A
C428        H433   1.083       .  S
C429        C430   1.420       .  A
C430        C431   1.403       .  A
C430        C434   1.520       .  S
C431        H435   1.084       .  S
C432        F445   1.384       .  S
C432        F446   1.382       .  S
C432        F447   1.383       .  S
C434        F442   1.384       .  S
C434        F443   1.376       .  S
C434        F444   1.383       .  S
C448        C449   1.396       .  A
C448        C453   1.402       .  A
C448        H458   1.084       .  S
C449        C454   1.493       .  S
C449        C450   1.421       .  A
C450        C451   1.420       .  A
C450        C455   1.523       .  S
C451        C452   1.412       .  A
C451        H456   1.079       .  S
C452        C453   1.428       .  A
C453        C457   1.512       .  S
C454        C459   1.416       .  A
C454        C463   1.402       .  A
C455        F471   1.383       .  S
C455        F472   1.379       .  S
C455        F473   1.385       .  S
C457        F468   1.374       .  S
C457        F469   1.385       .  S
C457        F470   1.383       .  S
C459        C460   1.415       .  A
C459        C464   1.518       .  S
C460        C461   1.410       .  A
C460        H465   1.083       .  S
C461        C462   1.419       .  A
C462        C463   1.408       .  A
C462        C466   1.514       .  S
C463        H467   1.082       .  S
C464        F477   1.384       .  S
C464        F478   1.382       .  S
C464        F479   1.379       .  S
C466        F474   1.379       .  S
C466        F475   1.381       .  S
C466        F476   1.385       .  S
C480        C481   1.393       .  A
C480        C485   1.411       .  A
C480        H490   1.086       .  S
C481        C486   1.495       .  S
C481        C482   1.413       .  A
C482        C483   1.412       .  A
C482        C487   1.518       .  S
C483        C484   1.416       .  A
C483        H488   1.085       .  S
C484        C485   1.451       .  A
C485        C489   1.526       .  S
C486        C491   1.411       .  A
C486        C495   1.405       .  A
C487        F503   1.384       .  S
C487        F504   1.382       .  S
C487        F505   1.383       .  S
C489        F500   1.373       .  S
C489        F501   1.383       .  S
C489        F502   1.367       .  S
C491        C492   1.408       .  A
C491        C496   1.519       .  S
C492        C493   1.414       .  A
C492        H497   1.081       .  S
C493        C494   1.426       .  A
C494        C495   1.417       .  A
C494        C498   1.518       .  S
C495        H499   1.083       .  S
C496        F509   1.384       .  S
C496        F510   1.383       .  S
C496        F511   1.383       .  S
C498        F506   1.383       .  S
C498        F507   1.383       .  S
C498        F508   1.385       .  S
C512        C513   1.404       .  A
C512        C517   1.408       .  A
C512        H522   1.083       .  S
C513        C518   1.512       .  S
C513        C514   1.426       .  A
C514        C515   1.425       .  A
C514        C519   1.519       .  S
C515        C516   1.408       .  A
C515        H520   1.083       .  S
C516        C517   1.415       .  A
C517        C521   1.510       .  S
C518        C523   1.421       .  A
C518        C527   1.408       .  A
C519        F535   1.380       .  S
C519        F536   1.383       .  S
C519        F537   1.384       .  S
C521        F532   1.383       .  S
C521        F533   1.383       .  S
C521        F534   1.383       .  S
C523        C524   1.408       .  A
C523        C528   1.519       .  S
C524        C525   1.411       .  A
C524        H529   1.080       .  S
C525        C526   1.427       .  A
C526        C527   1.418       .  A
C526        C530   1.517       .  S
C527        H531   1.081       .  S
C528        F541   1.384       .  S
C528        F542   1.383       .  S
C528        F543   1.383       .  S
C530        F538   1.382       .  S
C530        F539   1.381       .  S
C530        F540   1.384       .  S
C544        C545   1.403       .  A
C544        C549   1.414       .  A
C544        H554   1.083       .  S
C545        C550   1.489       .  S
C545        C546   1.410       .  A
C546        C547   1.402       .  A
C546        C551   1.525       .  S
C547        C548   1.417       .  A
C547        H552   1.068       .  S
C548        C549   1.428       .  A
C549        C553   1.516       .  S
C550        C555   1.417       .  A
C550        C559   1.403       .  A
C551        F567   1.380       .  S
C551        F568   1.382       .  S
C551        F569   1.385       .  S
C553        F564   1.384       .  S
C553        F565   1.383       .  S
C553        F566   1.381       .  S
C555        C556   1.411       .  A
C555        C560   1.517       .  S
C556        C557   1.403       .  A
C556        H561   1.083       .  S
C557        C558   1.414       .  A
C558        C559   1.405       .  A
C558        C562   1.514       .  S
C559        H563   1.083       .  S
C560        F573   1.384       .  S
C560        F574   1.382       .  S
C560        F575   1.382       .  S
C562        F570   1.380       .  S
C562        F571   1.383       .  S
C562        F572   1.385       .  S
C576        C577   1.410       .  A
C576        C581   1.421       .  A
C576        H586   1.084       .  S
C577        C582   1.508       .  S
C577        C578   1.416       .  A
C578        C579   1.407       .  A
C578        C583   1.522       .  S
C579        C580   1.408       .  A
C579        H584   1.073       .  S
C580        C581   1.425       .  A
C581        C585   1.515       .  S
C582        C587   1.423       .  A
C582        C591   1.407       .  A
C583        F599   1.381       .  S
C583        F600   1.383       .  S
C583        F601   1.385       .  S
C585        F596   1.383       .  S
C585        F597   1.383       .  S
C585        F598   1.381       .  S
C587        C588   1.408       .  A
C587        C592   1.516       .  S
C588        C589   1.405       .  A
C588        H593   1.081       .  S
C589        C590   1.424       .  A
C590        C591   1.418       .  A
C590        C594   1.517       .  S
C591        H595   1.083       .  S
C592        F605   1.384       .  S
C592        F606   1.373       .  S
C592        F607   1.383       .  S
C594        F602   1.385       .  S
C594        F603   1.381       .  S
C594        F604   1.376       .  S
C608        C609   1.405       .  A
C608        C613   1.414       .  A
C608        H618   1.083       .  S
C609        C614   1.488       .  S
C609        C610   1.413       .  A
C610        C611   1.402       .  A
C610        C615   1.520       .  S
C611        C612   1.407       .  A
C611        H616   1.083       .  S
C612        C613   1.424       .  A
C613        C617   1.521       .  S
C614        C619   1.413       .  A
C614        C623   1.394       .  A
C615        F631   1.378       .  S
C615        F632   1.380       .  S
C615        F633   1.385       .  S
C617        F628   1.384       .  S
C617        F629   1.378       .  S
C617        F630   1.380       .  S
C619        C620   1.415       .  A
C619        C624   1.518       .  S
C620        C621   1.410       .  A
C620        H625   1.083       .  S
C621        C622   1.434       .  A
C622        C623   1.402       .  A
C622        C626   1.512       .  S
C623        H627   1.086       .  S
C624        F637   1.384       .  S
C624        F638   1.383       .  S
C624        F639   1.382       .  S
C626        F634   1.384       .  S
C626        F635   1.356       .  S
C626        F636   1.378       .  S
C640        C641   1.397       .  A
C640        C645   1.397       .  A
C640        H650   1.082       .  S
C641        C646   1.471       .  S
C641        C642   1.411       .  A
C642        C643   1.405       .  A
C642        C647   1.519       .  S
C643        C644   1.407       .  A
C643        H648   1.083       .  S
C644        C645   1.418       .  A
C645        C649   1.518       .  S
C646        C651   1.405       .  A
C646        C655   1.389       .  A
C647        F663   1.382       .  S
C647        F664   1.382       .  S
C647        F665   1.384       .  S
C649        F660   1.381       .  S
C649        F661   1.385       .  S
C649        F662   1.383       .  S
C651        C652   1.398       .  A
C651        C656   1.523       .  S
C652        C653   1.416       .  A
C652        H657   1.070       .  S
C653        C654   1.437       .  A
C654        C655   1.408       .  A
C654        C658   1.513       .  S
C655        H659   1.082       .  S
C656        F669   1.385       .  S
C656        F670   1.381       .  S
C656        F671   1.382       .  S
C658        F666   1.371       .  S
C658        F667   1.382       .  S
C658        F668   1.384       .  S
C672        C673   1.397       .  A
C672        C677   1.404       .  A
C672        H682   1.085       .  S
C673        C678   1.468       .  S
C673        C674   1.410       .  A
C674        C675   1.394       .  A
C674        C679   1.525       .  S
C675        C676   1.406       .  A
C675        H680   1.078       .  S
C676        C677   1.430       .  A
C677        C681   1.523       .  S
C678        C683   1.409       .  A
C678        C687   1.402       .  A
C679        F695   1.382       .  S
C679        F696   1.381       .  S
C679        F697   1.385       .  S
C681        F692   1.380       .  S
C681        F693   1.385       .  S
C681        F694   1.376       .  S
C683        C684   1.400       .  A
C683        C688   1.520       .  S
C684        C685   1.405       .  A
C684        H689   1.084       .  S
C685        C686   1.413       .  A
C686        C687   1.403       .  A
C686        C690   1.516       .  S
C687        H691   1.084       .  S
C688        F701   1.384       .  S
C688        F702   1.382       .  S
C688        F703   1.382       .  S
C690        F698   1.382       .  S
C690        F699   1.382       .  S
C690        F700   1.385       .  S
C704        C705   1.398       .  A
C704        C709   1.405       .  A
C704        H714   1.084       .  S
C705        C710   1.488       .  S
C705        C706   1.415       .  A
C706        C707   1.410       .  A
C706        C711   1.515       .  S
C707        C708   1.411       .  A
C707        H712   1.084       .  S
C708        C709   1.429       .  A
C709        C713   1.513       .  S
C710        C715   1.411       .  A
C710        C719   1.400       .  A
C711        F727   1.383       .  S
C711        F728   1.382       .  S
C711        F729   1.383       .  S
C713        F724   1.386       .  S
C713        F725   1.383       .  S
C713        F726   1.375       .  S
C715        C716   1.406       .  A
C715        C720   1.516       .  S
C716        C717   1.406       .  A
C716        H721   1.080       .  S
C717        C718   1.427       .  A
C718        C719   1.408       .  A
C718        C722   1.514       .  S
C719        H723   1.085       .  S
C720        F733   1.385       .  S
C720        F734   1.380       .  S
C720        F735   1.383       .  S
C722        F730   1.384       .  S
C722        F731   1.383       .  S
C722        F732   1.375       .  S
C736        C737   1.397       .  A
C736        C741   1.398       .  A
C736        H746   1.085       .  S
C737        C742   1.468       .  S
C737        C738   1.415       .  A
C738        C739   1.395       .  A
C738        C743   1.521       .  S
C739        C740   1.403       .  A
C739        H744   1.075       .  S
C740        C741   1.428       .  A
C741        C745   1.519       .  S
C742        C747   1.407       .  A
C742        C751   1.409       .  A
C743        F759   1.386       .  S
C743        F760   1.383       .  S
C743        F761   1.378       .  S
C745        F756   1.381       .  S
C745        F757   1.386       .  S
C745        F758   1.372       .  S
C747        C748   1.395       .  A
C747        C752   1.516       .  S
C748        C749   1.408       .  A
C748        H753   1.082       .  S
C749        C750   1.410       .  A
C750        C751   1.394       .  A
C750        C754   1.520       .  S
C751        H755   1.083       .  S
C752        F765   1.383       .  S
C752        F766   1.383       .  S
C752        F767   1.382       .  S
C754        F762   1.383       .  S
C754        F763   1.381       .  S
C754        F764   1.385       .  S
C768        C769   1.401       .  A
C768        C773   1.402       .  A
C768        H778   1.084       .  S
C769        C774   1.468       .  S
C769        C770   1.413       .  A
C770        C771   1.401       .  A
C770        C775   1.523       .  S
C771        C772   1.405       .  A
C771        H776   1.079       .  S
C772        C773   1.414       .  A
C773        C777   1.513       .  S
C774        C779   1.411       .  A
C774        C783   1.385       .  A
C775        F791   1.382       .  S
C775        F792   1.380       .  S
C775        F793   1.385       .  S
C777        F788   1.384       .  S
C777        F789   1.382       .  S
C777        F790   1.378       .  S
C779        C780   1.413       .  A
C779        C784   1.518       .  S
C780        C781   1.413       .  A
C780        H785   1.073       .  S
C781        C782   1.419       .  A
C782        C783   1.388       .  A
C782        C786   1.495       .  S
C783        H787   1.086       .  S
C784        F797   1.384       .  S
C784        F798   1.382       .  S
C784        F799   1.380       .  S
C786        F794   1.386       .  S
C786        F795   1.373       .  S
C786        F796   1.376       .  S
C800        C801   1.402       .  A
C800        C805   1.402       .  A
C800        H810   1.085       .  S
C801        C806   1.473       .  S
C801        C802   1.413       .  A
C802        C803   1.398       .  A
C802        C807   1.522       .  S
C803        C804   1.401       .  A
C803        H808   1.072       .  S
C804        C805   1.415       .  A
C805        C809   1.511       .  S
C806        C811   1.414       .  A
C806        C815   1.397       .  A
C807        F823   1.381       .  S
C807        F824   1.383       .  S
C807        F825   1.385       .  S
C809        F820   1.382       .  S
C809        F821   1.383       .  S
C809        F822   1.378       .  S
C811        C812   1.399       .  A
C811        C816   1.522       .  S
C812        C813   1.411       .  A
C812        H817   1.083       .  S
C813        C814   1.423       .  A
C814        C815   1.403       .  A
C814        C818   1.511       .  S
C815        H819   1.083       .  S
C816        F829   1.383       .  S
C816        F830   1.383       .  S
C816        F831   1.380       .  S
C818        F826   1.379   1_554  S
C818        F827   1.383       .  S
C818        F828   1.384       .  S
C832        C833   1.403       .  A
C832        C837   1.387       .  A
C832        H842   1.082       .  S
C833        C838   1.468       .  S
C833        C834   1.414       .  A
C834        C835   1.404       .  A
C834        C839   1.517       .  S
C835        C836   1.406       .  A
C835        H840   1.085       .  S
C836        C837   1.408       .  A
C837        C841   1.521       .  S
C838        C843   1.412       .  A
C838        C847   1.395       .  A
C839        F855   1.383       .  S
C839        F856   1.383       .  S
C839        F857   1.382       .  S
C841        F852   1.379       .  S
C841        F853   1.385       .  S
C841        F854   1.383       .  S
C843        C844   1.399       .  A
C843        C848   1.521       .  S
C844        C845   1.407       .  A
C844        H849   1.074       .  S
C845        C846   1.422       .  A
C846        C847   1.397       .  A
C846        C850   1.499       .  S
C847        H851   1.087       .  S
C848        F861   1.378       .  S
C848        F862   1.384       .  S
C848        F863   1.383       .  S
C850        F858   1.384       .  S
C850        F859   1.361       .  S
C850        F860   1.383       .  S
C864        C865   1.401       .  A
C864        C869   1.410       .  A
C864        H874   1.085       .  S
C865        C870   1.479       .  S
C865        C866   1.412       .  A
C866        C867   1.398       .  A
C866        C871   1.520       .  S
C867        C868   1.410       .  A
C867        H872   1.081       .  S
C868        C869   1.430       .  A
C869        C873   1.519       .  S
C870        C875   1.418       .  A
C870        C879   1.406       .  A
C871        F887   1.384       .  S
C871        F888   1.384       .  S
C871        F889   1.382       .  S
C873        F884   1.385       .  S
C873        F885   1.381       .  S
C873        F886   1.373       .  S
C875        C876   1.398       .  A
C875        C880   1.523       .  S
C876        C877   1.401       .  A
C876        H881   1.080       .  S
C877        C878   1.413       .  A
C878        C879   1.413       .  A
C878        C882   1.511       .  S
C879        H883   1.083       .  S
C880        F893   1.383       .  S
C880        F894   1.380       .  S
C880        F895   1.383       .  S
C882        F890   1.384       .  S
C882        F891   1.381       .  S
C882        F892   1.383       .  S
O896        C904   1.264       .  A
O896       Co916   2.023       .  S
O897        C905   1.288       .  A
O897       Co917   2.044       .  S
O898        C906   1.273       .  A
O898       Co918   1.911   1_556  S
O899        C907   1.260       .  A
O899       Co919   1.984       .  S
O900        C906   1.283       .  A
O900       Co917   2.031       .  S
O901        C907   1.265       .  A
O901       Co916   1.998       .  S
O902        C905   1.273       .  A
O903        C904   1.249       .  A
C904       C1772   1.472       .  S
C905       C1667   1.482       .  S
C906       C1731   1.465       .  S
C907       C1708   1.496       .  S
O908        C921   1.258       .  A
O908       Co916   1.956       .  S
O909        C922   1.248       .  A
O909       Co917   1.981       .  S
O910        C923   1.252       .  A
O911        C924   1.246       .  A
O912        C924   1.257       .  A
O912       Co917   2.015       .  S
O913        C923   1.270       .  A
O913       Co916   1.993       .  S
O914        C921   1.274       .  A
O914       Co919   2.021       .  S
O915        C922   1.238       .  A
O915       Co918   1.944   1_556  S
Co916       O920   2.106       .  S
Co919       O920   1.944       .  S
C921       C1644   1.471       .  S
C922       C1539   1.453       .  S
C923       C1580   1.446       .  S
C924       C1603   1.508       .  S
O925        C933   1.282       .  A
O925       Co945   2.048   1_565  S
O926        C934   1.273       .  A
O926       Co946   2.044       .  S
O927        C935   1.242       .  A
O928        C936   1.258       .  A
O928       Co948   1.963       .  S
O929        C935   1.265       .  A
O929       Co946   2.038   1_565  S
O930        C936   1.277       .  A
O930       Co945   2.043       .  S
O931        C934   1.253       .  A
O932        C933   1.273       .  A
O932       Co947   2.001       .  S
C933       C1411   1.508       .  S
C934       C1292   1.489       .  S
C935       C1452   1.480       .  S
C936       C1324   1.492       .  S
O937        C950   1.251       .  A
O937       Co945   1.948       .  S
O938        C951   1.272       .  A
O938       Co946   1.906   1_565  S
O939        C952   1.263       .  A
O939       Co947   2.047       .  S
O940        C953   1.277       .  A
O941        C953   1.263       .  A
O941       Co946   1.973       .  S
O942        C952   1.246       .  A
O942       Co945   1.958   1_565  S
O943        C950   1.271       .  A
O943       Co948   2.040       .  S
O944        C951   1.300       .  A
Co945       O949   2.026       .  S
Co947       O949   2.056   1_565  S
Co948       O949   2.068       .  S
C950       C1356   1.484       .  S
C951       C1484   1.500       .  S
C952       C1507   1.504       .  S
C953       C1388   1.516       .  S
O954        C962   1.254       .  A
O954       Co974   1.957       .  S
O955        C963   1.259       .  A
O956        C964   1.247       .  A
O956       Co976   1.978   1_455  S
O957        C965   1.277       .  A
O957       Co977   2.041       .  S
O958        C964   1.254       .  A
O958       Co975   2.001       .  S
O959        C965   1.256       .  A
O960        C963   1.246       .  A
O960       Co977   1.985   1_455  S
O961        C962   1.281       .  A
O961       Co976   2.053       .  S
C962       C1251   1.503       .  S
C963       C1059   1.514       .  S
C964       C1027   1.491       .  S
C965       C1219   1.495       .  S
O966        C979   1.271       .  A
O967        C980   1.299       .  A
O967       Co975   2.083       .  S
O968        C981   1.264       .  A
O968       Co976   2.009       .  S
O969        C982   1.278       .  A
O969       Co977   1.934   1_455  S
O970        C982   1.295       .  A
O971        C981   1.266       .  A
O971       Co974   2.026       .  S
O972        C979   1.264       .  A
O972       Co977   2.002       .  S
O973        C980   1.276       .  A
O973       Co976   1.894   1_455  S
Co974       O978   2.065       .  S
Co975       O978   2.229   1_455  S
Co976       O978   1.972       .  S
C979       C1187   1.515       .  S
C980       C1132   1.481       .  S
C981       C1164   1.520       .  S
C982       C1091   1.518       .  S
C983        H984   1.110       .  S
C983        C989   1.560       .  S
C983        C988   1.566       .  S
C983        C987   1.526       .  S
C985        H986   1.093       .  S
C985        C991   1.562       .  S
C985        C990   1.564       .  S
C985        C992   1.532       .  S
C987        C990   1.384       .  D
C987       C1740   1.497       .  S
C988        C991   1.403       .  D
C988       C1379   1.541       .  S
C989        C992   1.362       .  D
C989       C1100   1.510       .  S
C990       C1763   1.506       .  S
C991       C1347   1.537       .  S
C992       C1123   1.504       .  S
C993        H994   1.089       .  S
C993        C999   1.553       .  S
C993        C998   1.567       .  S
C993        C997   1.545       .  S
C995        H996   1.108       .  S
C995       C1001   1.551       .  S
C995       C1000   1.541       .  S
C995       C1002   1.571       .  S
C997       C1000   1.380       .  D
C997       C1699   1.487       .  S
C998       C1001   1.386       .  D
C998       C1315   1.534       .  S
C999       C1002   1.405       .  D
C999       C1155   1.557       .  S
C1000      C1676   1.520       .  S
C1001      C1283   1.522       .  S
C1002      C1196   1.513       .  S
C1003      H1004   1.098       .  S
C1003      C1009   1.535       .  S
C1003      C1008   1.544       .  S
C1003      C1007   1.557       .  S
C1005      H1006   1.091       .  S
C1005      C1011   1.557       .  S
C1005      C1010   1.546       .  S
C1005      C1012   1.573       .  S
C1007      C1010   1.389       .  D
C1007      C1571   1.486       .  S
C1008      C1011   1.380       .  D
C1008      C1516   1.519       .  S
C1009      C1012   1.385       .  D
C1009      C1036   1.536       .  S
C1010      C1548   1.531       .  S
C1011      C1475   1.518       .  S
C1012      C1068   1.519       .  S
C1013      H1014   1.086       .  S
C1013      C1019   1.536       .  S
C1013      C1018   1.548       .  S
C1013      C1017   1.571       .  S
C1015      H1016   1.097       .  S
C1015      C1021   1.559       .  S
C1015      C1020   1.519       .  S
C1015      C1022   1.558       .  S
C1017      C1020   1.387       .  D
C1017      C1612   1.508       .  S
C1018      C1021   1.393       .  D
C1018      C1443   1.526       .  S
C1019      C1022   1.375       .  D
C1019      C1228   1.521       .  S
C1020      C1635   1.495       .  S
C1021      C1420   1.526       .  S
C1022      C1260   1.526       .  S
C1023      C1024   1.404       .  A
C1023      C1028   1.409       .  A
C1023      H1033   1.084       .  S
C1024      C1029   1.495       .  S
C1024      C1025   1.421       .  A
C1025      C1026   1.412       .  A
C1025      C1030   1.516       .  S
C1026      C1027   1.404       .  A
C1026      H1031   1.085       .  S
C1027      C1028   1.420       .  A
C1028      C1032   1.519       .  S
C1029      C1034   1.412       .  A
C1029      C1038   1.388       .  A
C1030      F1046   1.382       .  S
C1030      F1047   1.383       .  S
C1030      F1048   1.384       .  S
C1032      F1043   1.381       .  S
C1032      F1044   1.385       .  S
C1032      F1045   1.383       .  S
C1034      C1035   1.418       .  A
C1034      C1039   1.514       .  S
C1035      C1036   1.415       .  A
C1035      H1040   1.083       .  S
C1036      C1037   1.443       .  A
C1037      C1038   1.406       .  A
C1037      C1041   1.515       .  S
C1038      H1042   1.084       .  S
C1039      F1052   1.384       .  S
C1039      F1053   1.382       .  S
C1039      F1054   1.383       .  S
C1041      F1049   1.386       .  S
C1041      F1050   1.365       .  S
C1041      F1051   1.376       .  S
C1055      C1056   1.402       .  A
C1055      C1060   1.417       .  A
C1055      H1065   1.083       .  S
C1056      C1061   1.512       .  S
C1056      C1057   1.420       .  A
C1057      C1058   1.415       .  A
C1057      C1062   1.513       .  S
C1058      C1059   1.407       .  A
C1058      H1063   1.083       .  S
C1059      C1060   1.430       .  A
C1060      C1064   1.516       .  S
C1061      C1066   1.418       .  A
C1061      C1070   1.410       .  A
C1062      F1078   1.382       .  S
C1062      F1079   1.382       .  S
C1062      F1080   1.385       .  S
C1064      F1075   1.385       .  S
C1064      F1076   1.378   1_455  S
C1064      F1077   1.383       .  S
C1066      C1067   1.412       .  A
C1066      C1071   1.521       .  S
C1067      C1068   1.410       .  A
C1067      H1072   1.076       .  S
C1068      C1069   1.422       .  A
C1069      C1070   1.420       .  A
C1069      C1073   1.515       .  S
C1070      H1074   1.084       .  S
C1071      F1084   1.385       .  S
C1071      F1085   1.382       .  S
C1071      F1086   1.383       .  S
C1073      F1081   1.383       .  S
C1073      F1082   1.382       .  S
C1073      F1083   1.383       .  S
C1087      C1088   1.398       .  A
C1087      C1092   1.412       .  A
C1087      H1097   1.083       .  S
C1088      C1093   1.504       .  S
C1088      C1089   1.417       .  A
C1089      C1090   1.417       .  A
C1089      C1094   1.514       .  S
C1090      C1091   1.410       .  A
C1090      H1095   1.081       .  S
C1091      C1092   1.431       .  A
C1092      C1096   1.515       .  S
C1093      C1098   1.418       .  A
C1093      C1102   1.408       .  A
C1094      F1110   1.382       .  S
C1094      F1111   1.383       .  S
C1094      F1112   1.384       .  S
C1096      F1107   1.383       .  S
C1096      F1108   1.385       .  S
C1096      F1109   1.383       .  S
C1098      C1099   1.409       .  A
C1098      C1103   1.522       .  S
C1099      C1100   1.406       .  A
C1099      H1104   1.079       .  S
C1100      C1101   1.418       .  A
C1101      C1102   1.419       .  A
C1101      C1105   1.514       .  S
C1102      H1106   1.083       .  S
C1103      F1116   1.382       .  S
C1103      F1117   1.384       .  S
C1103      F1118   1.381       .  S
C1105      F1113   1.379       .  S
C1105      F1114   1.384       .  S
C1105      F1115   1.380       .  S
C1119      C1120   1.402       .  A
C1119      C1124   1.398       .  A
C1119      H1129   1.086       .  S
C1120      C1125   1.493       .  S
C1120      C1121   1.421       .  A
C1121      C1122   1.411       .  A
C1121      C1126   1.517       .  S
C1122      C1123   1.407       .  A
C1122      H1127   1.084       .  S
C1123      C1124   1.421       .  A
C1124      C1128   1.509       .  S
C1125      C1130   1.424       .  A
C1125      C1134   1.402       .  A
C1126      F1142   1.380       .  S
C1126      F1143   1.383       .  S
C1126      F1144   1.384       .  S
C1128      F1139   1.381       .  S
C1128      F1140   1.384       .  S
C1128      F1141   1.364       .  S
C1130      C1131   1.412       .  A
C1130      C1135   1.516       .  S
C1131      C1132   1.406       .  A
C1131      H1136   1.085       .  S
C1132      C1133   1.420       .  A
C1133      C1134   1.397       .  A
C1133      C1137   1.520       .  S
C1134      H1138   1.086       .  S
C1135      F1148   1.383       .  S
C1135      F1149   1.382       .  S
C1135      F1150   1.379       .  S
C1137      F1145   1.384       .  S
C1137      F1146   1.377       .  S
C1137      F1147   1.380       .  S
C1151      C1152   1.404       .  A
C1151      C1156   1.417       .  A
C1151      H1161   1.084       .  S
C1152      C1157   1.511       .  S
C1152      C1153   1.419       .  A
C1153      C1154   1.419       .  A
C1153      C1158   1.519       .  S
C1154      C1155   1.410       .  A
C1154      H1159   1.072       .  S
C1155      C1156   1.430       .  A
C1156      C1160   1.517       .  S
C1157      C1162   1.420       .  A
C1157      C1166   1.400       .  A
C1158      F1174   1.382       .  S
C1158      F1175   1.381       .  S
C1158      F1176   1.384       .  S
C1160      F1171   1.384       .  S
C1160      F1172   1.384       .  S
C1160      F1173   1.384       .  S
C1162      C1163   1.423       .  A
C1162      C1167   1.518       .  S
C1163      C1164   1.413       .  A
C1163      H1168   1.083       .  S
C1164      C1165   1.433       .  A
C1165      C1166   1.415       .  A
C1165      C1169   1.521       .  S
C1166      H1170   1.082       .  S
C1167      F1180   1.384       .  S
C1167      F1181   1.382       .  S
C1167      F1182   1.381       .  S
C1169      F1177   1.383       .  S
C1169      F1178   1.381       .  S
C1169      F1179   1.385       .  S
C1183      C1184   1.396       .  A
C1183      C1188   1.410       .  A
C1183      H1193   1.083       .  S
C1184      C1189   1.501       .  S
C1184      C1185   1.417       .  A
C1185      C1186   1.416       .  A
C1185      C1190   1.514       .  S
C1186      C1187   1.411       .  A
C1186      H1191   1.083       .  S
C1187      C1188   1.429       .  A
C1188      C1192   1.507       .  S
C1189      C1194   1.417       .  A
C1189      C1198   1.406       .  A
C1190      F1206   1.382       .  S
C1190      F1207   1.377       .  S
C1190      F1208   1.385       .  S
C1192      F1203   1.385       .  S
C1192      F1204   1.381   1_655  S
C1192      F1205   1.379       .  S
C1194      C1195   1.408       .  A
C1194      C1199   1.523       .  S
C1195      C1196   1.406       .  A
C1195      H1200   1.076       .  S
C1196      C1197   1.423       .  A
C1197      C1198   1.418       .  A
C1197      C1201   1.513       .  S
C1198      H1202   1.084       .  S
C1199      F1212   1.384       .  S
C1199      F1213   1.381       .  S
C1199      F1214   1.382       .  S
C1201      F1209   1.384       .  S
C1201      F1210   1.381       .  S
C1201      F1211   1.382       .  S
C1215      C1216   1.410       .  A
C1215      C1220   1.417       .  A
C1215      H1225   1.083       .  S
C1216      C1221   1.483       .  S
C1216      C1217   1.412       .  A
C1217      C1218   1.396       .  A
C1217      C1222   1.523       .  S
C1218      C1219   1.412       .  A
C1218      H1223   1.085       .  S
C1219      C1220   1.417       .  A
C1220      C1224   1.516       .  S
C1221      C1226   1.408       .  A
C1221      C1230   1.399       .  A
C1222      F1238   1.381       .  S
C1222      F1239   1.384       .  S
C1222      F1240   1.383       .  S
C1224      F1235   1.385       .  S
C1224      F1236   1.383       .  S
C1224      F1237   1.383       .  S
C1226      C1227   1.403       .  A
C1226      C1231   1.518       .  S
C1227      C1228   1.413       .  A
C1227      H1232   1.083       .  S
C1228      C1229   1.435       .  A
C1229      C1230   1.413       .  A
C1229      C1233   1.524       .  S
C1230      H1234   1.083       .  S
C1231      F1244   1.385       .  S
C1231      F1245   1.380       .  S
C1231      F1246   1.380       .  S
C1233      F1241   1.385       .  S
C1233      F1242   1.377       .  S
C1233      F1243   1.383       .  S
C1247      C1248   1.397       .  A
C1247      C1252   1.407       .  A
C1247      H1257   1.083       .  S
C1248      C1253   1.499       .  S
C1248      C1249   1.420       .  A
C1249      C1250   1.417       .  A
C1249      C1254   1.514       .  S
C1250      C1251   1.406       .  A
C1250      H1255   1.081       .  S
C1251      C1252   1.433       .  A
C1252      C1256   1.524       .  S
C1253      C1258   1.420       .  A
C1253      C1262   1.390       .  A
C1254      F1270   1.382       .  S
C1254      F1271   1.382       .  S
C1254      F1272   1.385       .  S
C1256      F1267   1.383       .  S
C1256      F1268   1.385       .  S
C1256      F1269   1.384       .  S
C1258      C1259   1.420       .  A
C1258      C1263   1.516       .  S
C1259      C1260   1.409       .  A
C1259      H1264   1.081       .  S
C1260      C1261   1.440       .  A
C1261      C1262   1.402       .  A
C1261      C1265   1.516       .  S
C1262      H1266   1.086       .  S
C1263      F1276   1.384       .  S
C1263      F1277   1.382       .  S
C1263      F1278   1.382       .  S
C1265      F1273   1.385       .  S
C1265      F1274   1.362       .  S
C1265      F1275   1.382       .  S
C1279      C1280   1.389       .  A
C1279      C1284   1.399       .  A
C1279      H1289   1.086       .  S
C1280      C1285   1.489       .  S
C1280      C1281   1.416       .  A
C1281      C1282   1.418       .  A
C1281      C1286   1.517       .  S
C1282      C1283   1.411       .  A
C1282      H1287   1.078       .  S
C1283      C1284   1.435       .  A
C1284      C1288   1.506       .  S
C1285      C1290   1.417       .  A
C1285      C1294   1.401       .  A
C1286      F1302   1.383       .  S
C1286      F1303   1.381       .  S
C1286      F1304   1.384       .  S
C1288      F1299   1.384       .  S
C1288      F1300   1.383       .  S
C1288      F1301   1.353       .  S
C1290      C1291   1.410       .  A
C1290      C1295   1.520       .  S
C1291      C1292   1.406       .  A
C1291      H1296   1.084       .  S
C1292      C1293   1.417       .  A
C1293      C1294   1.409       .  A
C1293      C1297   1.506       .  S
C1294      H1298   1.083       .  S
C1295      F1308   1.385       .  S
C1295      F1309   1.382       .  S
C1295      F1310   1.381       .  S
C1297      F1305   1.380       .  S
C1297      F1306   1.377       .  S
C1297      F1307   1.385       .  S
C1311      C1312   1.408       .  A
C1311      C1316   1.413       .  A
C1311      H1321   1.066       .  S
C1312      C1317   1.525       .  S
C1312      C1313   1.427       .  A
C1313      C1314   1.410       .  A
C1313      C1318   1.520       .  S
C1314      C1315   1.410       .  A
C1314      H1319   1.074       .  S
C1315      C1316   1.425       .  A
C1316      C1320   1.514       .  S
C1317      C1322   1.434       .  A
C1317      C1326   1.406       .  A
C1318      F1334   1.383       .  S
C1318      F1335   1.383       .  S
C1318      F1336   1.384       .  S
C1320      F1331   1.384       .  S
C1320      F1332   1.381       .  S
C1320      F1333   1.380       .  S
C1322      C1323   1.421       .  A
C1322      C1327   1.518       .  S
C1323      C1324   1.403       .  A
C1323      H1328   1.083       .  S
C1324      C1325   1.422       .  A
C1325      C1326   1.404       .  A
C1325      C1329   1.520       .  S
C1326      H1330   1.084       .  S
C1327      F1340   1.383       .  S
C1327      F1341   1.382       .  S
C1327      F1342   1.383       .  S
C1329      F1337   1.384       .  S
C1329      F1338   1.375       .  S
C1329      F1339   1.384       .  S
C1343      C1344   1.391       .  A
C1343      C1348   1.398       .  A
C1343      H1353   1.085       .  S
C1344      C1349   1.483       .  S
C1344      C1345   1.416       .  A
C1345      C1346   1.419       .  A
C1345      C1350   1.519       .  S
C1346      C1347   1.414       .  A
C1346      H1351   1.079       .  S
C1347      C1348   1.434       .  A
C1348      C1352   1.514       .  S
C1349      C1354   1.416       .  A
C1349      C1358   1.403       .  A
C1350      F1366   1.383       .  S
C1350      F1367   1.381       .  S
C1350      F1368   1.384       .  S
C1352      F1363   1.373       .  S
C1352      F1364   1.385       .  S
C1352      F1365   1.384       .  S
C1354      C1355   1.408       .  A
C1354      C1359   1.517       .  S
C1355      C1356   1.408       .  A
C1355      H1360   1.085       .  S
C1356      C1357   1.416       .  A
C1357      C1358   1.405       .  A
C1357      C1361   1.514       .  S
C1358      H1362   1.083       .  S
C1359      F1372   1.383       .  S
C1359      F1373   1.384       .  S
C1359      F1374   1.381       .  S
C1361      F1369   1.379       .  S
C1361      F1370   1.382       .  S
C1361      F1371   1.385       .  S
C1375      C1376   1.394       .  A
C1375      C1380   1.415       .  A
C1375      H1385   1.085       .  S
C1376      C1381   1.502       .  S
C1376      C1377   1.414       .  A
C1377      C1378   1.413       .  A
C1377      C1382   1.517       .  S
C1378      C1379   1.415       .  A
C1378      H1383   1.082       .  S
C1379      C1380   1.452       .  A
C1380      C1384   1.525       .  S
C1381      C1386   1.414       .  A
C1381      C1390   1.404       .  A
C1382      F1398   1.384       .  S
C1382      F1399   1.381       .  S
C1382      F1400   1.383       .  S
C1384      F1395   1.376       .  S
C1384      F1396   1.384       .  S
C1384      F1397   1.366       .  S
C1386      C1387   1.414       .  A
C1386      C1391   1.518       .  S
C1387      C1388   1.415       .  A
C1387      H1392   1.081       .  S
C1388      C1389   1.428       .  A
C1389      C1390   1.418       .  A
C1389      C1393   1.519       .  S
C1390      H1394   1.083       .  S
C1391      F1404   1.385       .  S
C1391      F1405   1.383       .  S
C1391      F1406   1.382       .  S
C1393      F1401   1.383       .  S
C1393      F1402   1.383       .  S
C1393      F1403   1.385       .  S
C1407      C1408   1.405       .  A
C1407      C1412   1.413       .  A
C1407      H1417   1.083       .  S
C1408      C1413   1.520       .  S
C1408      C1409   1.428       .  A
C1409      C1410   1.425       .  A
C1409      C1414   1.519       .  S
C1410      C1411   1.407       .  A
C1410      H1415   1.083       .  S
C1411      C1412   1.418       .  A
C1412      C1416   1.510       .  S
C1413      C1418   1.425       .  A
C1413      C1422   1.408       .  A
C1414      F1430   1.381       .  S
C1414      F1431   1.383       .  S
C1414      F1432   1.384       .  S
C1416      F1427   1.382       .  S
C1416      F1428   1.382       .  S
C1416      F1429   1.383       .  S
C1418      C1419   1.414       .  A
C1418      C1423   1.519       .  S
C1419      C1420   1.411       .  A
C1419      H1424   1.080       .  S
C1420      C1421   1.425       .  A
C1421      C1422   1.417       .  A
C1421      C1425   1.517       .  S
C1422      H1426   1.080       .  S
C1423      F1436   1.385       .  S
C1423      F1437   1.383       .  S
C1423      F1438   1.383       .  S
C1425      F1433   1.383       .  S
C1425      F1434   1.382       .  S
C1425      F1435   1.384       .  S
C1439      C1440   1.404       .  A
C1439      C1444   1.415       .  A
C1439      H1449   1.084       .  S
C1440      C1445   1.489       .  S
C1440      C1441   1.411       .  A
C1441      C1442   1.402       .  A
C1441      C1446   1.526       .  S
C1442      C1443   1.415       .  A
C1442      H1447   1.071       .  S
C1443      C1444   1.427       .  A
C1444      C1448   1.516       .  S
C1445      C1450   1.418       .  A
C1445      C1454   1.400       .  A
C1446      F1462   1.381       .  S
C1446      F1463   1.381       .  S
C1446      F1464   1.385       .  S
C1448      F1459   1.385       .  S
C1448      F1460   1.382       .  S
C1448      F1461   1.381       .  S
C1450      C1451   1.414       .  A
C1450      C1455   1.518       .  S
C1451      C1452   1.405       .  A
C1451      H1456   1.083       .  S
C1452      C1453   1.415       .  A
C1453      C1454   1.403       .  A
C1453      C1457   1.515       .  S
C1454      H1458   1.083       .  S
C1455      F1468   1.385       .  S
C1455      F1469   1.382       .  S
C1455      F1470   1.382       .  S
C1457      F1465   1.378       .  S
C1457      F1466   1.383       .  S
C1457      F1467   1.385       .  S
C1471      C1472   1.409       .  A
C1471      C1476   1.420       .  A
C1471      H1481   1.084       .  S
C1472      C1477   1.502       .  S
C1472      C1473   1.413       .  A
C1473      C1474   1.406       .  A
C1473      C1478   1.522       .  S
C1474      C1475   1.409       .  A
C1474      H1479   1.069       .  S
C1475      C1476   1.422       .  A
C1476      C1480   1.514       .  S
C1477      C1482   1.421       .  A
C1477      C1486   1.406       .  A
C1478      F1494   1.381       .  S
C1478      F1495   1.384       .  S
C1478      F1496   1.385       .  S
C1480      F1491   1.383       .  S
C1480      F1492   1.383       .  S
C1480      F1493   1.381       .  S
C1482      C1483   1.409       .  A
C1482      C1487   1.516       .  S
C1483      C1484   1.405       .  A
C1483      H1488   1.082       .  S
C1484      C1485   1.424       .  A
C1485      C1486   1.415       .  A
C1485      C1489   1.519       .  S
C1486      H1490   1.083       .  S
C1487      F1500   1.376       .  S
C1487      F1501   1.383       .  S
C1487      F1502   1.384       .  S
C1489      F1497   1.385       .  S
C1489      F1498   1.381       .  S
C1489      F1499   1.376       .  S
C1503      C1504   1.409       .  A
C1503      C1508   1.421       .  A
C1503      H1513   1.083       .  S
C1504      C1509   1.500       .  S
C1504      C1505   1.414       .  A
C1505      C1506   1.406       .  A
C1505      C1510   1.521       .  S
C1506      C1507   1.412       .  A
C1506      H1511   1.083       .  S
C1507      C1508   1.422       .  A
C1508      C1512   1.517       .  S
C1509      C1514   1.416       .  A
C1509      C1518   1.395       .  A
C1510      F1526   1.380       .  S
C1510      F1527   1.381       .  S
C1510      F1528   1.385       .  S
C1512      F1523   1.385       .  S
C1512      F1524   1.378       .  S
C1512      F1525   1.381       .  S
C1514      C1515   1.419       .  A
C1514      C1519   1.517       .  S
C1515      C1516   1.410       .  A
C1515      H1520   1.083       .  S
C1516      C1517   1.434       .  A
C1517      C1518   1.407       .  A
C1517      C1521   1.510       .  S
C1518      H1522   1.085       .  S
C1519      F1532   1.384       .  S
C1519      F1533   1.383       .  S
C1519      F1534   1.382       .  S
C1521      F1529   1.384       .  S
C1521      F1530   1.359       .  S
C1521      F1531   1.379       .  S
C1535      C1536   1.400       .  A
C1535      C1540   1.396       .  A
C1535      H1545   1.083       .  S
C1536      C1541   1.462       .  S
C1536      C1537   1.411       .  A
C1537      C1538   1.400       .  A
C1537      C1542   1.519       .  S
C1538      C1539   1.402       .  A
C1538      H1543   1.084       .  S
C1539      C1540   1.411       .  A
C1540      C1544   1.519       .  S
C1541      C1546   1.402       .  A
C1541      C1550   1.387       .  A
C1542      F1558   1.382       .  S
C1542      F1559   1.381       .  S
C1542      F1560   1.385       .  S
C1544      F1555   1.380       .  S
C1544      F1556   1.385       .  S
C1544      F1557   1.384       .  S
C1546      C1547   1.396       .  A
C1546      C1551   1.524       .  S
C1547      C1548   1.417       .  A
C1547      H1552   1.069       .  S
C1548      C1549   1.437       .  A
C1549      C1550   1.404       .  A
C1549      C1553   1.512       .  S
C1550      H1554   1.083       .  S
C1551      F1564   1.384       .  S
C1551      F1565   1.382       .  S
C1551      F1566   1.381       .  S
C1553      F1561   1.370       .  S
C1553      F1562   1.381       .  S
C1553      F1563   1.384       .  S
C1567      C1568   1.393       .  A
C1567      C1572   1.399       .  A
C1567      H1577   1.085       .  S
C1568      C1573   1.455       .  S
C1568      C1569   1.409       .  A
C1569      C1570   1.390       .  A
C1569      C1574   1.525       .  S
C1570      C1571   1.404       .  A
C1570      H1575   1.080       .  S
C1571      C1572   1.432       .  A
C1572      C1576   1.523       .  S
C1573      C1578   1.407       .  A
C1573      C1582   1.400       .  A
C1574      F1590   1.383       .  S
C1574      F1591   1.382       .  S
C1574      F1592   1.385       .  S
C1576      F1587   1.381       .  S
C1576      F1588   1.385       .  S
C1576      F1589   1.374       .  S
C1578      C1579   1.393       .  A
C1578      C1583   1.516       .  S
C1579      C1580   1.399       .  A
C1579      H1584   1.084       .  S
C1580      C1581   1.414       .  A
C1581      C1582   1.398       .  A
C1581      C1585   1.520       .  S
C1582      H1586   1.084       .  S
C1583      F1596   1.381       .  S
C1583      F1597   1.384       .  S
C1583      F1598   1.383       .  S
C1585      F1593   1.383       .  S
C1585      F1594   1.381       .  S
C1585      F1595   1.384       .  S
C1599      C1600   1.397       .  A
C1599      C1604   1.403       .  A
C1599      H1609   1.084       .  S
C1600      C1605   1.491       .  S
C1600      C1601   1.418       .  A
C1601      C1602   1.412       .  A
C1601      C1606   1.516       .  S
C1602      C1603   1.411       .  A
C1602      H1607   1.084       .  S
C1603      C1604   1.426       .  A
C1604      C1608   1.510       .  S
C1605      C1610   1.414       .  A
C1605      C1614   1.400       .  A
C1606      F1622   1.383       .  S
C1606      F1623   1.382       .  S
C1606      F1624   1.384       .  S
C1608      F1619   1.385       .  S
C1608      F1620   1.382       .  S
C1608      F1621   1.379       .  S
C1610      C1611   1.409       .  A
C1610      C1615   1.519       .  S
C1611      C1612   1.407       .  A
C1611      H1616   1.081       .  S
C1612      C1613   1.425       .  A
C1613      C1614   1.407       .  A
C1613      C1617   1.513       .  S
C1614      H1618   1.085       .  S
C1615      F1628   1.385       .  S
C1615      F1629   1.380       .  S
C1615      F1630   1.383       .  S
C1617      F1625   1.384       .  S
C1617      F1626   1.383       .  S
C1617      F1627   1.374       .  S
C1631      C1632   1.396       .  A
C1631      C1636   1.399       .  A
C1631      H1641   1.085       .  S
C1632      C1637   1.476       .  S
C1632      C1633   1.415       .  A
C1633      C1634   1.400       .  A
C1633      C1638   1.518       .  S
C1634      C1635   1.404       .  A
C1634      H1639   1.076       .  S
C1635      C1636   1.430       .  A
C1636      C1640   1.521       .  S
C1637      C1642   1.408       .  A
C1637      C1646   1.409       .  A
C1638      F1654   1.385       .  S
C1638      F1655   1.382       .  S
C1638      F1656   1.378       .  S
C1640      F1651   1.381       .  S
C1640      F1652   1.386       .  S
C1640      F1653   1.373       .  S
C1642      C1643   1.401       .  A
C1642      C1647   1.516       .  S
C1643      C1644   1.410       .  A
C1643      H1648   1.084       .  S
C1644      C1645   1.412       .  A
C1645      C1646   1.396       .  A
C1645      C1649   1.519       .  S
C1646      H1650   1.083       .  S
C1647      F1660   1.383       .  S
C1647      F1661   1.384       .  S
C1647      F1662   1.383       .  S
C1649      F1657   1.382       .  S
C1649      F1658   1.380       .  S
C1649      F1659   1.385       .  S
C1663      C1664   1.404       .  A
C1663      C1668   1.406       .  A
C1663      H1673   1.084       .  S
C1664      C1669   1.476       .  S
C1664      C1665   1.416       .  A
C1665      C1666   1.402       .  A
C1665      C1670   1.521       .  S
C1666      C1667   1.406       .  A
C1666      H1671   1.082       .  S
C1667      C1668   1.417       .  A
C1668      C1672   1.517       .  S
C1669      C1674   1.410       .  A
C1669      C1678   1.386       .  A
C1670      F1686   1.383       .  S
C1670      F1687   1.381       .  S
C1670      F1688   1.383       .  S
C1672      F1683   1.385       .  S
C1672      F1684   1.382       .  S
C1672      F1685   1.380       .  S
C1674      C1675   1.414       .  A
C1674      C1679   1.516       .  S
C1675      C1676   1.414       .  A
C1675      H1680   1.073       .  S
C1676      C1677   1.424       .  A
C1677      C1678   1.396       .  A
C1677      C1681   1.498       .  S
C1678      H1682   1.085       .  S
C1679      F1692   1.384       .  S
C1679      F1693   1.383       .  S
C1679      F1694   1.382       .  S
C1681      F1689   1.385       .  S
C1681      F1690   1.373       .  S
C1681      F1691   1.376       .  S
C1695      C1696   1.402       .  A
C1695      C1700   1.402       .  A
C1695      H1705   1.085       .  S
C1696      C1701   1.475       .  S
C1696      C1697   1.415       .  A
C1697      C1698   1.398       .  A
C1697      C1702   1.523       .  S
C1698      C1699   1.401       .  A
C1698      H1703   1.073       .  S
C1699      C1700   1.414       .  A
C1700      C1704   1.510       .  S
C1701      C1706   1.415       .  A
C1701      C1710   1.396       .  A
C1702      F1718   1.381       .  S
C1702      F1719   1.383       .  S
C1702      F1720   1.385       .  S
C1704      F1715   1.382       .  S
C1704      F1716   1.383       .  S
C1704      F1717   1.377       .  S
C1706      C1707   1.401       .  A
C1706      C1711   1.521       .  S
C1707      C1708   1.411       .  A
C1707      H1712   1.083       .  S
C1708      C1709   1.423       .  A
C1709      C1710   1.402       .  A
C1709      C1713   1.510       .  S
C1710      H1714   1.082       .  S
C1711      F1724   1.383       .  S
C1711      F1725   1.383       .  S
C1711      F1726   1.380       .  S
C1713      F1721   1.380       .  S
C1713      F1722   1.384       .  S
C1713      F1723   1.385       .  S
C1727      C1728   1.400       .  A
C1727      C1732   1.390       .  A
C1727      H1737   1.083       .  S
C1728      C1733   1.475       .  S
C1728      C1729   1.416       .  A
C1729      C1730   1.404       .  A
C1729      C1734   1.515       .  S
C1730      C1731   1.404       .  A
C1730      H1735   1.084   1_556  S
C1731      C1732   1.420       .  A
C1732      C1736   1.525       .  S
C1733      C1738   1.413       .  A
C1733      C1742   1.400       .  A
C1734      F1750   1.383   1_556  S
C1734      F1751   1.383       .  S
C1734      F1752   1.383   1_556  S
C1736      F1747   1.379       .  S
C1736      F1748   1.385       .  S
C1736      F1749   1.383       .  S
C1738      C1739   1.398       .  A
C1738      C1743   1.521       .  S
C1739      C1740   1.405       .  A
C1739      H1744   1.075       .  S
C1740      C1741   1.422       .  A
C1741      C1742   1.399       .  A
C1741      C1745   1.502       .  S
C1742      H1746   1.086       .  S
C1743      F1756   1.377       .  S
C1743      F1757   1.383       .  S
C1743      F1758   1.383       .  S
C1745      F1753   1.384       .  S
C1745      F1754   1.360       .  S
C1745      F1755   1.384       .  S
C1759      C1760   1.400       .  A
C1759      C1764   1.410       .  A
C1759      H1769   1.085       .  S
C1760      C1765   1.476       .  S
C1760      C1761   1.408       .  A
C1761      C1762   1.397       .  A
C1761      C1766   1.520       .  S
C1762      C1763   1.412       .  A
C1762      H1767   1.079       .  S
C1763      C1764   1.430       .  A
C1764      C1768   1.518       .  S
C1765      C1770   1.419       .  A
C1765      C1774   1.405       .  A
C1766      F1782   1.384       .  S
C1766      F1783   1.383       .  S
C1766      F1784   1.382       .  S
C1768      F1779   1.385       .  S
C1768      F1780   1.382       .  S
C1768      F1781   1.372       .  S
C1770      C1771   1.396       .  A
C1770      C1775   1.522       .  S
C1771      C1772   1.400       .  A
C1771      H1776   1.085       .  S
C1772      C1773   1.412       .  A
C1773      C1774   1.409       .  A
C1773      C1777   1.510       .  S
C1774      H1778   1.083       .  S
C1775      F1788   1.384       .  S
C1775      F1789   1.379       .  S
C1775      F1790   1.382       .  S
C1777      F1785   1.384       .  S
C1777      F1786   1.381       .  S
C1777      F1787   1.382       .  S
