geometry optimzed in LAMMPS
_audit_creation_date              2020-11-30 
_audit_creation_method            'lammps2cif' 
_symmetry_space_group_name_H-M    'P1' 
_symmetry_Int_Tables_number       1 
_symmetry_cell_setting            triclinic 
loop_ 
_symmetry_equiv_pos_as_xyz 
  x,y,z 
_cell_length_a                    34.24796553 
_cell_length_b                    34.25546978273388 
_cell_length_c                    38.48563619193214 
_cell_angle_alpha                 90.90982251050322 
_cell_angle_beta                  89.78216351014387 
_cell_angle_gamma                 89.62600118223266 
loop_ 
_atom_site_label 
_atom_site_type_symbol 
_atom_site_fract_x 
_atom_site_fract_y 
_atom_site_fract_z 
_atom_site_charge 
N1          N  0.29714935  0.98607361  0.96212839    -0.36300
N2          N  0.29585415  0.99344892  0.03719894    -0.56800
N3          N  0.38080103  0.98440669  0.03830458    -0.36300
N4          N  0.38161667  0.97181302  0.96355072    -0.56800
C5          C  0.25856650  0.98143919  0.96915294     0.27300
C6          C  0.30419321  0.97017244  0.93020772     0.27300
C7          C  0.37219292  0.98102148  0.07242989     0.27300
C8          C  0.41750853  0.97052177  0.03347620     0.27300
C9          C  0.25932503  0.00631156  0.03001904     0.35900
C10         C  0.30360884  0.00489339  0.07026805     0.35900
C11         C  0.37646658  0.97495225  0.92888962     0.35900
C12         C  0.42047272  0.97462183  0.96917363     0.35900
C13         C  0.24137598  0.96176944  0.94136328    -0.21500
C14         C  0.26996577  0.95503474  0.91682355    -0.21500
C15         C  0.40384814  0.96474959  0.08949572    -0.21500
C16         C  0.43255907  0.95837283  0.06491967    -0.21500
C17         C  0.24433234  0.02676663  0.05861079    -0.22600
C18         C  0.27213439  0.02532832  0.08417587    -0.22600
C19         C  0.41221108  0.97962931  0.91246297    -0.22600
C20         C  0.44011007  0.97920356  0.93798777    -0.22600
C21         C  0.23856070  0.99627185  0.99924240    -0.17900
C22         C  0.34014613  0.97098144  0.91187220    -0.17900
C23         C  0.43858174  0.97083788  0.00186461    -0.17900
C24         C  0.33759739  0.99469487  0.08886623    -0.17900
H25         H  0.21149329  0.95266481  0.93864380     0.15000
H26         H  0.26602035  0.94039878  0.89195855     0.15000
H27         H  0.40628081  0.95860765  0.11690658     0.15000
H28         H  0.46131921  0.94634641  0.06968283     0.15000
H29         H  0.21644379  0.04146150  0.06117001     0.13200
H30         H  0.26954933  0.03799110  0.11003644     0.13200
H31         H  0.41775242  0.98272360  0.88495449     0.13200
H32         H  0.47128614  0.98178004  0.93402248     0.13200
H33         H  0.31673073  0.00297726  0.97654424     0.26500
H34         H  0.36422899  0.99947277  0.02008589     0.26500
N35         N  0.29522053  0.99294518  0.53616312    -0.36300
N36         N  0.29703173  0.00293714  0.46146199    -0.56800
N37         N  0.38182573  0.01070466  0.46460627    -0.36300
N38         N  0.37989524  0.99537593  0.53886347    -0.56800
C39         C  0.25859533  0.98223648  0.52707516     0.27300
C40         C  0.30229424  0.97817104  0.56798280     0.27300
C41         C  0.37646861  0.00744946  0.42982684     0.27300
C42         C  0.42009690  0.00360699  0.47072942     0.27300
C43         C  0.25850559  0.00912648  0.46759881     0.35900
C44         C  0.30461930  0.01718305  0.42955348     0.35900
C45         C  0.37210135  0.99583599  0.57334472     0.35900
C46         C  0.41794650  0.00490546  0.53541936     0.35900
C47         C  0.24278716  0.95951714  0.55313911    -0.21500
C48         C  0.27015772  0.95744650  0.57912082    -0.21500
C49         C  0.41175412  0.99853849  0.41369861    -0.21500
C50         C  0.43931783  0.99633634  0.43948102    -0.21500
C51         C  0.24194681  0.02787433  0.43939291    -0.22600
C52         C  0.27099505  0.03242242  0.41523116    -0.22600
C53         C  0.40540720  0.00543947  0.59187470    -0.22600
C54         C  0.43454315  0.01089776  0.56782657    -0.22600
C55         C  0.23824534  0.99568230  0.49743016    -0.17900
C56         C  0.33591243  0.98537516  0.58821027    -0.17900
C57         C  0.43850824  0.00558241  0.50354384    -0.17900
C58         C  0.34098984  0.01447061  0.41223997    -0.17900
H59         H  0.21443669  0.94587781  0.55367970     0.15000
H60         H  0.26680110  0.94243961  0.60348063     0.15000
H61         H  0.41723267  0.99437739  0.38617739     0.15000
H62         H  0.47007434  0.99020053  0.43559185     0.15000
H63         H  0.21229121  0.03775180  0.43602413     0.13200
H64         H  0.26782277  0.04580660  0.39009591     0.13200
H65         H  0.40858921  0.00777675  0.61979106     0.13200
H66         H  0.46456126  0.01822623  0.57353872     0.13200
H67         H  0.31220796  0.01344294  0.52364570     0.26500
H68         H  0.36156820  0.02104448  0.48257387     0.26500
N69         N  0.12330360  0.82301385  0.96064796    -0.36300
N70         N  0.12805162  0.73764713  0.95968431    -0.56800
N71         N  0.11562292  0.73870681  0.03384082    -0.36300
N72         N  0.11567676  0.82401114  0.03517948    -0.56800
C73         C  0.13745411  0.81497344  0.92842273     0.27300
C74         C  0.13203745  0.86073835  0.96833514     0.27300
C75         C  0.12735761  0.70132535  0.02824977     0.27300
C76         C  0.12059801  0.74674280  0.06804187     0.27300
C77         C  0.12406228  0.74402168  0.92536177     0.35900
C78         C  0.12095630  0.69931582  0.96429847     0.35900
C79         C  0.10645446  0.86162821  0.02853112     0.35900
C80         C  0.10171698  0.81656196  0.06728963     0.35900
C81         C  0.15556757  0.84761385  0.91540479    -0.21500
C82         C  0.15270510  0.87627409  0.94071218    -0.21500
C83         C  0.14019121  0.68553661  0.05914565    -0.21500
C84         C  0.13605763  0.71427538  0.08427347    -0.21500
C85         C  0.11472584  0.70958439  0.90800236    -0.22600
C86         C  0.11277686  0.68116793  0.93274852    -0.22600
C87         C  0.08595540  0.87779054  0.05650238    -0.22600
C88         C  0.08318478  0.84932689  0.08107783    -0.22600
C89         C  0.13144125  0.77998894  0.90940885    -0.17900
C90         C  0.11908822  0.88169192  0.99853566    -0.17900
C91         C  0.10844528  0.78153151  0.08523859    -0.17900
C92         C  0.12404543  0.68040362  0.99648169    -0.17900
H93         H  0.16940130  0.85045831  0.89024383     0.15000
H94         H  0.16454339  0.90518113  0.93850427     0.15000
H95         H  0.15104342  0.65622413  0.06321556     0.15000
H96         H  0.14309790  0.71136580  0.11150164     0.15000
H97         H  0.11026804  0.70529326  0.88038081     0.13200
H98         H  0.10630081  0.65066706  0.92802648     0.13200
H99         H  0.07391714  0.90684345  0.05923822     0.13200
H100        H  0.06923423  0.85244750  0.10626015     0.13200
H101        H  0.10451199  0.80526466  0.97452823     0.26500
H102        H  0.10056375  0.75605234  0.01638995     0.26500
N103        N  0.11319436  0.82413063  0.46181889    -0.36300
N104        N  0.11589961  0.82406299  0.53704029    -0.56800
N105        N  0.11732561  0.73870123  0.53417502    -0.36300
N106        N  0.10921467  0.73904477  0.45935121    -0.56800
C107        C  0.10297054  0.86153866  0.46980891     0.27300
C108        C  0.10123489  0.81674251  0.42888691     0.27300
C109        C  0.11242347  0.74561803  0.56860103     0.27300
C110        C  0.10679532  0.70125424  0.52783790     0.27300
C111        C  0.12466409  0.86193385  0.53115847     0.35900
C112        C  0.12855422  0.81610192  0.56948101     0.35900
C113        C  0.11534146  0.74581074  0.42528895     0.35900
C114        C  0.11559646  0.70048120  0.46383536     0.35900
C115        C  0.08328145  0.87744677  0.44180564    -0.21500
C116        C  0.08276030  0.84940850  0.41588692    -0.21500
C117        C  0.09834877  0.71235584  0.58430668    -0.21500
C118        C  0.09476068  0.68433025  0.55854285    -0.21500
C119        C  0.14314675  0.87778948  0.56018182    -0.22600
C120        C  0.14528548  0.84891600  0.58439177    -0.22600
C121        C  0.12552705  0.71136803  0.40802557    -0.22600
C122        C  0.12540471  0.68255026  0.43246268    -0.22600
C123        C  0.11430106  0.88221530  0.50045240    -0.17900
C124        C  0.10901471  0.78219787  0.40944267    -0.17900
C125        C  0.11090526  0.68113044  0.49566615    -0.17900
C126        C  0.12349879  0.78012032  0.58644222    -0.17900
H127        H  0.07042700  0.90619298  0.43985816     0.15000
H128        H  0.07012006  0.85265038  0.39034929     0.15000
H129        H  0.09191965  0.70849101  0.61158795     0.15000
H130        H  0.08507843  0.65464389  0.56211983     0.15000
H131        H  0.15495550  0.90667230  0.56387322     0.13200
H132        H  0.15819117  0.85169540  0.60993103     0.13200
H133        H  0.13196201  0.70727144  0.38065949     0.13200
H134        H  0.13182897  0.65194816  0.42770106     0.13200
H135        H  0.13166566  0.80637284  0.47613629     0.26500
H136        H  0.13174117  0.75685101  0.51706115     0.26500
N137        N  0.94233017  0.99571082  0.03694144    -0.36300
N138        N  0.94364990  0.00074678  0.96231753    -0.56800
N139        N  0.85829029  0.99906718  0.96130876    -0.36300
N140        N  0.85713599  0.98911424  0.03578982    -0.56800
C141        C  0.98027843  0.98722939  0.02974126     0.27300
C142        C  0.93424857  0.98160027  0.06879854     0.27300
C143        C  0.86705886  0.99287830  0.92737121     0.27300
C144        C  0.82133547  0.98660414  0.96638227     0.27300
C145        C  0.98063626  0.01166859  0.96975810     0.35900
C146        C  0.93605654  0.01351629  0.92997596     0.35900
C147        C  0.86321837  0.99529610  0.07011482     0.35900
C148        C  0.81887943  0.99664110  0.03012165     0.35900
C149        C  0.99606297  0.96672704  0.05726025    -0.21500
C150        C  0.96715155  0.96352680  0.08197625    -0.21500
C151        C  0.83538678  0.97614374  0.91062279    -0.21500
C152        C  0.80650564  0.97211717  0.93528927    -0.21500
C153        C  0.99612965  0.03219773  0.94216462    -0.22600
C154        C  0.96802135  0.03299594  0.91687762    -0.22600
C155        C  0.82879202  0.00703002  0.08630925    -0.22600
C156        C  0.80067595  0.00794554  0.06093325    -0.22600
C157        C  0.00102170  0.00016800  0.99998615    -0.17900
C158        C  0.89878788  0.98739575  0.08718640    -0.17900
C159        C  0.80001051  0.99078553  0.99782640    -0.17900
C160        C  0.90202154  0.00449361  0.91101156    -0.17900
H161        H  0.02525943  0.95515074  0.05968917     0.15000
H162        H  0.97006284  0.94958872  0.10688820     0.15000
H163        H  0.83315052  0.96803187  0.88341331     0.15000
H164        H  0.77773919  0.96023157  0.93074275     0.15000
H165        H  0.02451883  0.04551864  0.94016889     0.13200
H166        H  0.97080231  0.04629886  0.89167132     0.13200
H167        H  0.82432372  0.01391171  0.11358232     0.13200
H168        H  0.77030731  0.01583905  0.06479594     0.13200
H169        H  0.92423795  0.01419921  0.02286939     0.26500
H170        H  0.87498218  0.01504535  0.97902034     0.26500
N171        N  0.94417810  0.01103656  0.46241293    -0.36300
N172        N  0.85908433  0.01661663  0.46110314    -0.56800
N173        N  0.85836717  0.02472334  0.53591596    -0.36300
N174        N  0.94338744  0.01451038  0.53744683    -0.56800
C175        C  0.93587633  0.99809281  0.42985054     0.27300
C176        C  0.98057628  0.99812235  0.47019383     0.27300
C177        C  0.81995124  0.01906921  0.52959402     0.27300
C178        C  0.86440642  0.01716463  0.56987313     0.27300
C179        C  0.86658564  0.01914771  0.42673325     0.35900
C180        C  0.82125934  0.02706996  0.46562760     0.35900
C181        C  0.98178767  0.02089652  0.53148124     0.35900
C182        C  0.93613095  0.02649303  0.57049476     0.35900
C183        C  0.96701301  0.97644179  0.41680132    -0.21500
C184        C  0.99495050  0.97591415  0.44236698    -0.21500
C185        C  0.80137397  0.00788717  0.55989403    -0.21500
C186        C  0.82947543  0.00653989  0.58530217    -0.21500
C187        C  0.83335801  0.03103415  0.40926791    -0.22600
C188        C  0.80460024  0.03610906  0.43396139    -0.22600
C189        C  0.99861305  0.03771148  0.56088794    -0.22600
C190        C  0.96982235  0.04064542  0.58567777    -0.22600
C191        C  0.90207591  0.00766090  0.41076381    -0.17900
C192        C  0.00169712  0.00858470  0.50072175    -0.17900
C193        C  0.89996928  0.02271284  0.58774874    -0.17900
C194        C  0.80095529  0.02548561  0.49759604    -0.17900
H195        H  0.96928734  0.96231888  0.39150755     0.15000
H196        H  0.02252137  0.96055055  0.44036942     0.15000
H197        H  0.77071447  0.00148093  0.56337619     0.15000
H198        H  0.82461367  0.99908923  0.61219130     0.15000
H199        H  0.82997405  0.03487002  0.38157804     0.13200
H200        H  0.77470072  0.04477728  0.42907895     0.13200
H201        H  0.02824190  0.04746395  0.56454970     0.13200
H202        H  0.97319546  0.05229595  0.61179598     0.13200
H203        H  0.92792300  0.03153557  0.47671445     0.26500
H204        H  0.87838676  0.03730354  0.51912980     0.26500
O205        O  0.11987479  0.94493157  0.02720500    -0.71400
O206        O  0.11935843  0.05607452  0.02823196    -0.71600
O207        O  0.06408566  0.00120162  0.02802957    -0.71500
O208        O  0.17528851  0.99938823  0.02744647    -0.71500
O209        O  0.17535506  0.99992498  0.97131415    -0.71500
O210        O  0.06416348  0.00010715  0.97183696    -0.71500
O211        O  0.12000830  0.05565347  0.97206219    -0.71400
O212        O  0.11919843  0.94460122  0.97103248    -0.71600
V213        V  0.11969686  0.00045968  0.02665809     1.35200
V214        V  0.11970805  0.00012971  0.97263888     1.35200
C215        C  0.11938850  0.92556786  0.99893599     0.77800
C216        C  0.11929123  0.07508350  0.00028514     0.77900
C217        C  0.04491554  0.00056787  0.99998773     0.77700
C218        C  0.19457943  0.99887848  0.99931231     0.77700
O219        O  0.12459473  0.05630869  0.52750277    -0.71400
O220        O  0.11647633  0.94600307  0.52789778    -0.71600
O221        O  0.17586957  0.99775179  0.52668894    -0.71500
O222        O  0.06498627  0.00473701  0.52825607    -0.71500
O223        O  0.06436016  0.00421060  0.47211803    -0.71500
O224        O  0.17487095  0.99621000  0.47050736    -0.71500
O225        O  0.11685856  0.94460427  0.47176819    -0.71400
O226        O  0.12276577  0.05576540  0.47135963    -0.71600
V227        V  0.12042540  0.00116800  0.52650144     1.35200
V228        V  0.11967373  0.00017351  0.47248852     1.35200
C229        C  0.12513590  0.07517238  0.49955859     0.77800
C230        C  0.11580043  0.92610322  0.50000893     0.77900
C231        C  0.19450081  0.99632069  0.49821611     0.77700
C232        C  0.04550039  0.00572990  0.50040975     0.77700
N233        N  0.11711447  0.17653136  0.03992512    -0.36300
N234        N  0.11351176  0.17741097  0.96495968    -0.56800
N235        N  0.10523683  0.26254570  0.96798500    -0.36300
N236        N  0.11374538  0.26165085  0.04276357    -0.56800
C237        C  0.12919030  0.13986072  0.03124492     0.27300
C238        C  0.13043557  0.18456676  0.07232550     0.27300
C239        C  0.11317112  0.25630394  0.93387058     0.27300
C240        C  0.11200382  0.30073166  0.97502900     0.27300
C241        C  0.10587990  0.13927299  0.97055894     0.35900
C242        C  0.10136285  0.18502858  0.93234719     0.35900
C243        C  0.11047959  0.25412203  0.07699539     0.35900
C244        C  0.10330963  0.29945290  0.03896824     0.35900
C245        C  0.15126150  0.12497615  0.05826794    -0.21500
C246        C  0.15161187  0.15300034  0.08429180    -0.21500
C247        C  0.12528064  0.29093241  0.91913518    -0.21500
C248        C  0.12421418  0.31904333  0.94506538    -0.21500
C249        C  0.08799051  0.12302259  0.94142715    -0.22600
C250        C  0.08564182  0.15186864  0.91715060    -0.22600
C251        C  0.09797331  0.28727328  0.09504896    -0.22600
C252        C  0.09348728  0.31606777  0.07090727    -0.22600
C253        C  0.11798244  0.11899117  0.00066415    -0.17900
C254        C  0.12153809  0.21853491  0.09224615    -0.17900
C255        C  0.10559266  0.31976929  0.00742031    -0.17900
C256        C  0.10682766  0.22085534  0.91538240    -0.17900
H257        H  0.16585668  0.09696093  0.05938036     0.15000
H258        H  0.16586953  0.15046583  0.10921634     0.15000
H259        H  0.13359264  0.29566281  0.89238512     0.15000
H260        H  0.13159388  0.34950176  0.94218555     0.15000
H261        H  0.07731470  0.09370114  0.93762943     0.13200
H262        H  0.07349662  0.14886601  0.89132808     0.13200
H263        H  0.09316026  0.29056045  0.12275174     0.13200
H264        H  0.08455683  0.34592649  0.07630031     0.13200
H265        H  0.09686917  0.19319111  0.02637684     0.26500
H266        H  0.09183295  0.24292728  0.98453125     0.26500
N267        N  0.13196294  0.17614180  0.53983301    -0.36300
N268        N  0.13526342  0.17704680  0.46463839    -0.56800
N269        N  0.13875937  0.26193105  0.46735205    -0.36300
N270        N  0.13025214  0.26120474  0.54247290    -0.56800
C271        C  0.11891901  0.13992510  0.53137127     0.27300
C272        C  0.12038198  0.18402163  0.57287956     0.27300
C273        C  0.13458982  0.25533251  0.43280146     0.27300
C274        C  0.12876464  0.29964731  0.47386469     0.27300
C275        C  0.14170988  0.13864859  0.47032045     0.35900
C276        C  0.14896026  0.18427954  0.43238772     0.35900
C277        C  0.13624004  0.25424215  0.57650682     0.35900
C278        C  0.13637644  0.29974719  0.53811861     0.35900
C279        C  0.09792513  0.12539226  0.55929795    -0.21500
C280        C  0.09959554  0.15285936  0.58563434    -0.21500
C281        C  0.12185219  0.28927201  0.41712839    -0.21500
C282        C  0.11821659  0.31725801  0.44304929    -0.21500
C283        C  0.16016054  0.12168545  0.44162896    -0.22600
C284        C  0.16458909  0.15053505  0.41760202    -0.22600
C285        C  0.14603665  0.28851090  0.59390877    -0.22600
C286        C  0.14581142  0.31745799  0.56958567    -0.22600
C287        C  0.12854408  0.11889211  0.50026128    -0.17900
C288        C  0.12948488  0.21801009  0.59231933    -0.17900
C289        C  0.13199407  0.31932452  0.50634030    -0.17900
C290        C  0.14417738  0.22003771  0.41501855    -0.17900
H291        H  0.08256427  0.09803803  0.56091077     0.15000
H292        H  0.08641076  0.15046624  0.61111415     0.15000
H293        H  0.11614153  0.29358418  0.38981485     0.15000
H294        H  0.10933777  0.34731711  0.43953353     0.15000
H295        H  0.16979021  0.09185157  0.43808770     0.13200
H296        H  0.17758462  0.14701232  0.39205342     0.13200
H297        H  0.15202045  0.29240535  0.62133075     0.13200
H298        H  0.15188554  0.34801558  0.57449359     0.13200
H299        H  0.15154530  0.19271503  0.52557786     0.26500
H300        H  0.15198939  0.24304148  0.48467445     0.26500
C301        C  0.10666737  0.22118077  0.87661723    -0.02800
C302        C  0.08125536  0.24603115  0.85874902    -0.05500
C303        C  0.08281232  0.24802027  0.82252590    -0.20500
C304        C  0.10933820  0.22481864  0.80323786     0.25200
C305        C  0.13438278  0.19935171  0.82117799    -0.18100
C306        C  0.13297842  0.19760148  0.85748717    -0.08100
C307        C  0.11054165  0.22941140  0.76479632    -0.18300
C308        C  0.12739466  0.20372042  0.74233334    -0.23100
C309        C  0.12771455  0.20889477  0.70394912     0.27200
C310        C  0.15606590  0.18890449  0.68392355    -0.19900
C311        C  0.15687682  0.19226485  0.64774382    -0.09600
C312        C  0.12928919  0.21566607  0.63086913    -0.10100
C313        C  0.10069354  0.23540514  0.65063974    -0.03000
C314        C  0.09976496  0.23198713  0.68680399    -0.18100
H315        H  0.06059450  0.26434964  0.87294340     0.10900
H316        H  0.06323690  0.26793409  0.80949705     0.11000
H317        H  0.15586452  0.18152823  0.80763337     0.10700
H318        H  0.15304041  0.17841154  0.87078055     0.11800
H319        H  0.09657385  0.25538305  0.75477999     0.11900
H320        H  0.14194372  0.17793789  0.75205526     0.13800
H321        H  0.17768937  0.17064807  0.69632896     0.10300
H322        H  0.17896510  0.17653498  0.63283421     0.12400
H323        H  0.07870908  0.25296467  0.63795421     0.09000
H324        H  0.07649997  0.24671157  0.70093585     0.11800
C325        C  0.12358042  0.21642040  0.13078736    -0.02800
C326        C  0.09632128  0.19399672  0.14879628    -0.05500
C327        C  0.09690703  0.19284054  0.18508042    -0.20500
C328        C  0.12507964  0.21361610  0.20417797     0.25200
C329        C  0.15257460  0.23605277  0.18598810    -0.18100
C330        C  0.15176185  0.23740767  0.14960150    -0.08100
C331        C  0.12340613  0.21217016  0.24286701    -0.18300
C332        C  0.15340041  0.22120075  0.26413993    -0.23100
C333        C  0.15073967  0.21991289  0.30283926     0.27200
C334        C  0.17710427  0.24202300  0.32285710    -0.19900
C335        C  0.17510835  0.24218456  0.35923922    -0.09600
C336        C  0.14691343  0.21987226  0.37633317    -0.10100
C337        C  0.12111643  0.19708687  0.35648122    -0.03000
C338        C  0.12307199  0.19689543  0.32017949    -0.18100
H339        H  0.07420439  0.17782426  0.13471267     0.10900
H340        H  0.07519119  0.17560459  0.19831821     0.11000
H341        H  0.17411061  0.25334991  0.19959196     0.10700
H342        H  0.17286379  0.25509799  0.13608274     0.11800
H343        H  0.09590726  0.20302035  0.25404802     0.11900
H344        H  0.18086151  0.23070514  0.25312044     0.13800
H345        H  0.19901451  0.25962723  0.31028180     0.10300
H346        H  0.19551847  0.25970431  0.37408975     0.12400
H347        H  0.09936721  0.17940546  0.36919293     0.09000
H348        H  0.10315663  0.17824640  0.30601780     0.11800
C349        C  0.89930499  0.02461771  0.62637301    -0.02800
C350        C  0.87884759  0.05459031  0.64387892    -0.05500
C351        C  0.87769129  0.05597881  0.68019257    -0.20500
C352        C  0.89692588  0.02746739  0.69982256     0.25200
C353        C  0.91752578  0.99738827  0.68201605    -0.18100
C354        C  0.91879938  0.99617956  0.64568312    -0.08100
C355        C  0.89318624  0.02960963  0.73848475    -0.18300
C356        C  0.91425594  0.00766467  0.76050163    -0.23100
C357        C  0.90973169  0.00815961  0.79912015     0.27200
C358        C  0.93407857  0.98338249  0.81829010    -0.19900
C359        C  0.93121453  0.98202497  0.85443497    -0.09600
C360        C  0.90396445  0.00552581  0.87239930    -0.10100
C361        C  0.87937498  0.03026993  0.85356723    -0.03000
C362        C  0.88212758  0.03162247  0.81727420    -0.18100
H363        H  0.86367049  0.07683196  0.62936382     0.10900
H364        H  0.86146908  0.07936706  0.69301175     0.11000
H365        H  0.93207652  0.97416410  0.69560143     0.10700
H366        H  0.93452871  0.97267632  0.63253941     0.11800
H367        H  0.87205711  0.05042014  0.74878173     0.10900
H368        H  0.93640590  0.98802774  0.75006460     0.13800
H369        H  0.95548576  0.96485592  0.80523526     0.10300
H370        H  0.95037254  0.96262235  0.86849829     0.12400
H371        H  0.85822763  0.04872154  0.86703190     0.09000
H372        H  0.86251643  0.05108765  0.80400688     0.11800
C373        C  0.89902844  0.98466064  0.12581782    -0.02800
C374        C  0.87624906  0.95678387  0.14273540    -0.05500
C375        C  0.87631367  0.95464261  0.17903825    -0.20500
C376        C  0.89887144  0.98048355  0.19923587     0.25200
C377        C  0.92224280  0.00797963  0.18210315    -0.18100
C378        C  0.92220241  0.01003678  0.14580254    -0.08100
C379        C  0.89794978  0.97708611  0.23786476    -0.18300
C380        C  0.90725136  0.00663745  0.25989757    -0.23100
C381        C  0.90619435  0.00472369  0.29869058     0.27200
C382        C  0.89183135  0.97245499  0.31710943    -0.19900
C383        C  0.89077924  0.97317075  0.35355481    -0.09600
C384        C  0.90417636  0.00588731  0.37221116    -0.10100
C385        C  0.91879611  0.03778813  0.35411143    -0.03000
C386        C  0.91967656  0.03725059  0.31779692    -0.18100
H387        H  0.85844396  0.93667114  0.12778476     0.10900
H388        H  0.85838691  0.93291002  0.19142484     0.11000
H389        H  0.94112802  0.02755079  0.19642719     0.10700
H390        H  0.94024271  0.03153453  0.13322175     0.11800
H391        H  0.88812092  0.94952374  0.24800756     0.11900
H392        H  0.91563844  0.03442438  0.24910899     0.13800
H393        H  0.88087941  0.94679160  0.30386761     0.10300
H394        H  0.87931501  0.94832734  0.36724622     0.12400
H395        H  0.92911260  0.06333310  0.36816327     0.09000
H396        H  0.93083948  0.06254437  0.30455167     0.11800
C397        C  0.11064667  0.63775575  0.49566022    -0.02800
C398        C  0.07891754  0.61707157  0.48193207    -0.05500
C399        C  0.07807030  0.57628564  0.48345991    -0.20500
C400        C  0.10905270  0.55539673  0.49842636     0.25200
C401        C  0.14090416  0.57640401  0.51211933    -0.18100
C402        C  0.14163029  0.61716484  0.51067558    -0.08100
C403        C  0.10629819  0.51204922  0.50034515    -0.18300
C404        C  0.13733909  0.48830059  0.50496141    -0.23100
C405        C  0.13466449  0.44498306  0.50584796     0.27200
C406        C  0.16777713  0.42274808  0.49653351    -0.19900
C407        C  0.16669373  0.38199416  0.49666758    -0.09600
C408        C  0.13266268  0.36265667  0.50669365    -0.10100
C409        C  0.09968541  0.38457228  0.51686694    -0.03000
C410        C  0.10060412  0.42547160  0.51641959    -0.18100
H411        H  0.05460124  0.63257351  0.47051205     0.10900
H412        H  0.05305846  0.56097969  0.47297111     0.11000
H413        H  0.16488039  0.56178736  0.52477862     0.10700
H414        H  0.16618213  0.63278426  0.52166332     0.11800
H415        H  0.07775652  0.49924169  0.49617416     0.11900
H416        H  0.16641138  0.50060844  0.50597086     0.13800
H417        H  0.19447392  0.43698192  0.48867614     0.10300
H418        H  0.19244632  0.36543580  0.48897661     0.12400
H419        H  0.07329279  0.36998982  0.52499105     0.09000
H420        H  0.07490589  0.44159747  0.52481776     0.11800
C421        C  0.10292892  0.36307521  0.00835765    -0.02800
C422        C  0.07023115  0.38208211  0.99453475    -0.05500
C423        C  0.06804697  0.42288718  0.99476680    -0.20500
C424        C  0.09887502  0.44533473  0.00810869     0.25200
C425        C  0.13136149  0.42615276  0.02247844    -0.18100
C426        C  0.13330242  0.38534826  0.02262273    -0.08100
C427        C  0.09609150  0.48859858  0.00709867    -0.18300
C428        C  0.12760210  0.51149518  0.00320539    -0.23100
C429        C  0.12527102  0.55472690  0.00091425     0.27200
C430        C  0.15477263  0.57453912  0.98302386    -0.19900
C431        C  0.15412635  0.61528848  0.98104023    -0.09600
C432        C  0.12415327  0.63699259  0.99728725    -0.10100
C433        C  0.09477244  0.61733616  0.01540230    -0.03000
C434        C  0.09526593  0.57659080  0.01722679    -0.18100
H435        H  0.04647018  0.36527228  0.98355976     0.10900
H436        H  0.04256884  0.43698303  0.98388998     0.11000
H437        H  0.15508503  0.44258254  0.03390869     0.10700
H438        H  0.15861908  0.37107202  0.03359964     0.11800
H439        H  0.06709729  0.50160449  0.00713741     0.11900
H440        H  0.15613219  0.49796370  0.99959825     0.13800
H441        H  0.17836128  0.55840415  0.97049246     0.10300
H442        H  0.17724135  0.62996583  0.96721366     0.12400
H443        H  0.07161678  0.63366186  0.02838034     0.09000
H444        H  0.07267671  0.56245493  0.03208563     0.11800
C445        C  0.12980088  0.77842391  0.62468512    -0.02800
C446        C  0.15850655  0.75368072  0.63847010    -0.05500
C447        C  0.16440884  0.75225064  0.67442277    -0.20500
C448        C  0.14158025  0.77530438  0.69730106     0.25200
C449        C  0.11320728  0.80049349  0.68323789    -0.18100
C450        C  0.10721031  0.80172468  0.64738540    -0.08100
C451        C  0.14872371  0.77315530  0.73544942    -0.18300
C452        C  0.12145821  0.78347460  0.75932366    -0.23100
C453        C  0.12650635  0.78270839  0.79777144     0.27200
C454        C  0.09496850  0.79576048  0.81844523    -0.19900
C455        C  0.09712156  0.79539876  0.85459953    -0.09600
C456        C  0.13079942  0.78174192  0.87098042    -0.10100
C457        C  0.16270239  0.76893305  0.85077973    -0.03000
C458        C  0.16072634  0.76953375  0.81438509    -0.18100
H459        H  0.17641064  0.73560425  0.62133633     0.10900
H460        H  0.18670804  0.73291502  0.68441016     0.11000
H461        H  0.09596590  0.81995258  0.69958699     0.10700
H462        H  0.08505643  0.82112804  0.63725235     0.11800
H463        H  0.17678737  0.76186347  0.74360503     0.11900
H464        H  0.09290726  0.79263225  0.75036857     0.13800
H465        H  0.06830725  0.80615634  0.80656240     0.10300
H466        H  0.07223454  0.80528319  0.86989704     0.12400
H467        H  0.18894101  0.75832527  0.86321090     0.09000
H468        H  0.18584737  0.75934239  0.79974556     0.11800
C469        C  0.10376412  0.78133222  0.12373476    -0.02800
C470        C  0.07877832  0.75451913  0.13949254    -0.05500
C471        C  0.07602333  0.75289060  0.17568304    -0.20500
C472        C  0.09796790  0.77813489  0.19702378     0.25200
C473        C  0.12237034  0.80567701  0.18101227    -0.18100
C474        C  0.12531393  0.80703437  0.14479229    -0.08100
C475        C  0.09421266  0.77431157  0.23552194    -0.18300
C476        C  0.11572414  0.79426514  0.25908199    -0.23100
C477        C  0.11256137  0.79009300  0.29757953     0.27200
C478        C  0.13847553  0.81155534  0.31858900    -0.19900
C479        C  0.13721628  0.80889050  0.35475635    -0.09600
C480        C  0.11000136  0.78463277  0.37085771    -0.10100
C481        C  0.08374890  0.76337067  0.35018671    -0.03000
C482        C  0.08496399  0.76596566  0.31392456    -0.18100
H483        H  0.06174763  0.73451297  0.12371157     0.10900
H484        H  0.05683040  0.73152597  0.18705707     0.11000
H485        H  0.13946033  0.82627885  0.19588652     0.10700
H486        H  0.14481701  0.82791638  0.13312712     0.11800
H487        H  0.07304485  0.75333952  0.24437482     0.11900
H488        H  0.13751520  0.81456089  0.25017906     0.13800
H489        H  0.15994082  0.83048362  0.30697170     0.10300
H490        H  0.15763720  0.82567226  0.37027048     0.12400
H491        H  0.06223131  0.74481888  0.36219290     0.09000
H492        H  0.06403447  0.74909357  0.29927992     0.11800
C493        C  0.48180692  0.00635148  0.50429445    -0.02800
C494        C  0.50297140  0.97133235  0.50579179    -0.05500
C495        C  0.54373447  0.97157447  0.50418083    -0.20500
C496        C  0.56423943  0.00681922  0.50129261     0.25200
C497        C  0.54274276  0.04204755  0.49995122    -0.18100
C498        C  0.50185541  0.04170986  0.50144397    -0.08100
C499        C  0.60770100  0.00485297  0.49867317    -0.18300
C500        C  0.63170951  0.03579618  0.50184375    -0.23100
C501        C  0.67514620  0.03259996  0.49973527     0.27200
C502        C  0.69785220  0.06270266  0.51428357    -0.19900
C503        C  0.73868222  0.06056712  0.51339179    -0.09600
C504        C  0.75760539  0.02847221  0.49753850    -0.10100
C505        C  0.73517908  0.99873965  0.48233195    -0.03000
C506        C  0.69438062  0.00079513  0.48323706    -0.18100
H507        H  0.48783669  0.94376629  0.50758509     0.10900
H508        H  0.55933264  0.94399271  0.50499313     0.11000
H509        H  0.55700621  0.06982702  0.49696061     0.10700
H510        H  0.48577354  0.06895054  0.49985932     0.11800
H511        H  0.62036352  0.97595024  0.49525821     0.11900
H512        H  0.61960433  0.06441598  0.50791271     0.13800
H513        H  0.68394454  0.08772646  0.52679758     0.10300
H514        H  0.75557497  0.08385580  0.52517201     0.12400
H515        H  0.74935150  0.97382722  0.46987894     0.09000
H516        H  0.67827113  0.97760550  0.47059441     0.11800
C517        C  0.75643760  0.98898711  0.99667175    -0.02800
C518        C  0.73544338  0.01343414  0.97439606    -0.05500
C519        C  0.69467018  0.01223753  0.97341239    -0.20500
C520        C  0.67389079  0.98661223  0.99463612     0.25200
C521        C  0.69485870  0.96200390  0.01692972    -0.18100
C522        C  0.73573312  0.96307405  0.01777481    -0.08100
C523        C  0.63048606  0.98833411  0.99439031    -0.18300
C524        C  0.60731485  0.95854510  0.00358620    -0.23100
C525        C  0.56401513  0.96194113  0.00367651     0.27200
C526        C  0.54133382  0.92910346  0.99533557    -0.19900
C527        C  0.50051070  0.93186563  0.99471769    -0.09600
C528        C  0.48179362  0.96732358  0.00316999    -0.10100
C529        C  0.50426844  0.99983862  0.01255113    -0.03000
C530        C  0.54502840  0.99725424  0.01271917    -0.18100
H531        H  0.75067582  0.03375859  0.95795888     0.10900
H532        H  0.67925457  0.03163408  0.95615025     0.11000
H533        H  0.67984609  0.94261874  0.03433846     0.10700
H534        H  0.75125181  0.94389949  0.03514771     0.11800
H535        H  0.61706151  0.01500669  0.98508725     0.11900
H536        H  0.62013829  0.93038331  0.00954590     0.13800
H537        H  0.55526777  0.90149538  0.98867741     0.10300
H538        H  0.48348798  0.90644661  0.98761993     0.12400
H539        H  0.49018834  0.02730228  0.01945457     0.09000
H540        H  0.56160520  0.02277016  0.02032421     0.11800
C541        C  0.33935525  0.96714519  0.87311065    -0.02800
C542        C  0.35973289  0.93696203  0.85563000    -0.05500
C543        C  0.35922512  0.93419180  0.81925747    -0.20500
C544        C  0.33829789  0.96140893  0.79950305     0.25200
C545        C  0.31705875  0.99103606  0.81723005    -0.18100
C546        C  0.31780687  0.99391271  0.85353929    -0.08100
C547        C  0.33880140  0.95730120  0.76073869    -0.18300
C548        C  0.32879281  0.98628218  0.73902080    -0.23100
C549        C  0.32948588  0.98305041  0.70026923     0.27200
C550        C  0.35120762  0.95432169  0.68180664    -0.19900
C551        C  0.35264004  0.95437051  0.64535852    -0.09600
C552        C  0.33251102  0.98304677  0.62673335    -0.10100
C553        C  0.31023161  0.01109443  0.64499951    -0.03000
C554        C  0.30894471  0.01122679  0.68131356    -0.18100
H555        H  0.37614524  0.91563210  0.87017139     0.10900
H556        H  0.37549133  0.91081006  0.80647656     0.11000
H557        H  0.29933034  0.01184827  0.80346013     0.10700
H558        H  0.30151144  0.01717138  0.86647367     0.11800
H559        H  0.34834712  0.92937904  0.74998863     0.11900
H560        H  0.31952737  0.01425289  0.74982162     0.13800
H561        H  0.36812132  0.93252557  0.69519795     0.10300
H562        H  0.37006943  0.93253608  0.63165975     0.12400
H563        H  0.29457119  0.03351290  0.63109582     0.09000
H564        H  0.29208698  0.03375900  0.69469776     0.11800
C565        C  0.34158465  0.01712638  0.37361540    -0.02800
C566        C  0.36182403  0.04706033  0.35694814    -0.05500
C567        C  0.36301808  0.04844386  0.32057962    -0.20500
C568        C  0.34420186  0.01987114  0.30014061     0.25200
C569        C  0.32324776  0.99037381  0.31712837    -0.18100
C570        C  0.32215133  0.98900913  0.35339596    -0.08100
C571        C  0.34616915  0.02257135  0.26143922    -0.18300
C572        C  0.33688910  0.99294030  0.23950975    -0.23100
C573        C  0.33678512  0.99579331  0.20095409     0.27200
C574        C  0.31288366  0.97011841  0.18192650    -0.19900
C575        C  0.31243176  0.97062076  0.14563877    -0.09600
C576        C  0.33633870  0.99645583  0.12753737    -0.10100
C577        C  0.36036000  0.02223450  0.14632850    -0.03000
C578        C  0.36058946  0.02199366  0.18276216    -0.18100
H579        H  0.37679005  0.06921238  0.37212553     0.10900
H580        H  0.37895059  0.07177352  0.30835820     0.11000
H581        H  0.30706824  0.96849251  0.30285107     0.10700
H582        H  0.30616988  0.96582823  0.36579724     0.11800
H583        H  0.35536613  0.05020068  0.25080971     0.11900
H584        H  0.32775746  0.96522538  0.24985975     0.13800
H585        H  0.29447350  0.94949434  0.19523299     0.10300
H586        H  0.29398071  0.95028376  0.13158632     0.12400
H587        H  0.37932073  0.04209315  0.13272378     0.09000
H588        H  0.38015747  0.04150909  0.19641715     0.11800
loop_ 
_geom_bond_atom_site_label_1 
_geom_bond_atom_site_label_2 
_geom_bond_distance 
_geom_bond_site_symmetry_2 
_ccdc_geom_bond_type 
N1            C6   1.356       .  A
N1            C5   1.359       .  A
N1           H33   1.044   1_565  S
N2            C9   1.355   1_565  A
N2           C10   1.354   1_565  A
N3            C8   1.352       .  A
N3            C7   1.352       .  A
N3           H34   1.044       .  S
N4           C11   1.352       .  A
N4           C12   1.353       .  A
C5           C13   1.390       .  A
C5           C21   1.428       .  A
C6           C22   1.418       .  A
C6           C14   1.383       .  A
C7           C15   1.388       .  A
C7           C24   1.415       .  A
C8           C23   1.412       .  A
C8           C16   1.386       .  A
C9           C21   1.423   1_544  A
C9           C17   1.390       .  A
C10          C24   1.414   1_545  A
C10          C18   1.383       .  A
C11          C19   1.387       .  A
C11          C22   1.414       .  A
C12          C20   1.385       .  A
C12          C23   1.412   1_556  A
C13          C14   1.374       .  A
C13          H25   1.077       .  S
C14          H26   1.083       .  S
C15          C16   1.376       .  A
C15          H27   1.082       .  S
C16          H28   1.083       .  S
C17          C18   1.373       .  A
C17          H29   1.080       .  S
C18          H30   1.082       .  S
C19          C20   1.373       .  A
C19          H31   1.082       .  S
C20          H32   1.082       .  S
C21         C218   1.508       .  S
C22         C541   1.496       .  S
C23         C528   1.485       .  S
C24         C576   1.489       .  S
N35          C40   1.355       .  A
N35          C39   1.355       .  A
N35          H67   1.038   1_565  S
N36          C43   1.354       .  A
N36          C44   1.354       .  A
N37          C42   1.354       .  A
N37          C41   1.355       .  A
N37          H68   1.035       .  S
N38          C45   1.352       .  A
N38          C46   1.352   1_565  A
C39          C47   1.390       .  A
C39          C55   1.421       .  A
C40          C56   1.413       .  A
C40          C48   1.384       .  A
C41          C49   1.386   1_545  A
C41          C58   1.414       .  A
C42          C57   1.415       .  A
C42          C50   1.387   1_545  A
C43          C55   1.424   1_545  A
C43          C51   1.391       .  A
C44          C58   1.412       .  A
C44          C52   1.382       .  A
C45          C53   1.386   1_565  A
C45          C56   1.414       .  A
C46          C54   1.385       .  A
C46          C57   1.413       .  A
C47          C48   1.376       .  A
C47          H59   1.081       .  S
C48          H60   1.082       .  S
C49          C50   1.375       .  A
C49          H61   1.082       .  S
C50          H62   1.082       .  S
C51          C52   1.370       .  A
C51          H63   1.077       .  S
C52          H64   1.083       .  S
C53          C54   1.374       .  A
C53          H65   1.082       .  S
C54          H66   1.082       .  S
C55         C231   1.498       .  S
C56         C552   1.490       .  S
C57         C493   1.484       .  S
C58         C565   1.491       .  S
N69          C74   1.357       .  A
N69          C73   1.353       .  A
N69         H101   1.040       .  S
N70          C77   1.350       .  A
N70          C78   1.351       .  A
N71          C76   1.352       .  A
N71          C75   1.353       .  A
N71         H102   1.040       .  S
N72          C79   1.353       .  A
N72          C80   1.352       .  A
C73          C81   1.382       .  A
C73          C89   1.411       .  A
C74          C90   1.424       .  A
C74          C82   1.390       .  A
C75          C83   1.386       .  A
C75          C92   1.413   1_554  A
C76          C91   1.413       .  A
C76          C84   1.387       .  A
C77          C89   1.409       .  A
C77          C85   1.386       .  A
C78          C92   1.411       .  A
C78          C86   1.386       .  A
C79          C87   1.389       .  A
C79          C90   1.420   1_554  A
C80          C88   1.383       .  A
C80          C91   1.412       .  A
C81          C82   1.375       .  A
C81          H93   1.082       .  S
C82          H94   1.077       .  S
C83          C84   1.375       .  A
C83          H95   1.082       .  S
C84          H96   1.082       .  S
C85          C86   1.374       .  A
C85          H97   1.082       .  S
C86          H98   1.082       .  S
C87          C88   1.373       .  A
C87          H99   1.078       .  S
C88         H100   1.082       .  S
C89         C456   1.481       .  S
C90         C215   1.503       .  S
C91         C469   1.490       .  S
C92         C432   1.488       .  S
N103        C108   1.354       .  A
N103        C107   1.356       .  A
N103        H135   1.040       .  S
N104        C111   1.356       .  A
N104        C112   1.354       .  A
N105        C110   1.353       .  A
N105        C109   1.352       .  A
N105        H136   1.039       .  S
N106        C113   1.351       .  A
N106        C114   1.351       .  A
C107        C115   1.390       .  A
C107        C123   1.423       .  A
C108        C124   1.413       .  A
C108        C116   1.383       .  A
C109        C117   1.387       .  A
C109        C126   1.412       .  A
C110        C125   1.414       .  A
C110        C118   1.387       .  A
C111        C123   1.425       .  A
C111        C119   1.391       .  A
C112        C126   1.415       .  A
C112        C120   1.383       .  A
C113        C121   1.387       .  A
C113        C124   1.412       .  A
C114        C122   1.385       .  A
C114        C125   1.411       .  A
C115        C116   1.374       .  A
C115        H127   1.080       .  S
C116        H128   1.082       .  S
C117        C118   1.376       .  A
C117        H129   1.082       .  S
C118        H130   1.082       .  S
C119        C120   1.371       .  A
C119        H131   1.079       .  S
C120        H132   1.082       .  S
C121        C122   1.374       .  A
C121        H133   1.082       .  S
C122        H134   1.082       .  S
C123        C230   1.505       .  S
C124        C480   1.489       .  S
C125        C397   1.486       .  S
C126        C445   1.490       .  S
N137        C142   1.353       .  A
N137        C141   1.356       .  A
N137        H169   1.042   1_565  S
N138        C145   1.354       .  A
N138        C146   1.351       .  A
N139        C144   1.353       .  A
N139        C143   1.352       .  A
N139        H170   1.042   1_565  S
N140        C147   1.352       .  A
N140        C148   1.353       .  A
C141        C149   1.389       .  A
C141        C157   1.424   1_664  A
C142        C158   1.415       .  A
C142        C150   1.384       .  A
C143        C151   1.386       .  A
C143        C160   1.413   1_565  A
C144        C159   1.416       .  A
C144        C152   1.388       .  A
C145        C157   1.419   1_655  A
C145        C153   1.389       .  A
C146        C160   1.411       .  A
C146        C154   1.383       .  A
C147        C155   1.386   1_565  A
C147        C158   1.413       .  A
C148        C156   1.386   1_565  A
C148        C159   1.415   1_554  A
C149        C150   1.377       .  A
C149        H161   1.078   1_655  S
C150        H162   1.082       .  S
C151        C152   1.377       .  A
C151        H163   1.082       .  S
C152        H164   1.082       .  S
C153        C154   1.372       .  A
C153        H165   1.080   1_655  S
C154        H166   1.082       .  S
C155        C156   1.375       .  A
C155        H167   1.082       .  S
C156        H168   1.082       .  S
C157        C217   1.503       .  S
C158        C373   1.491       .  S
C159        C517   1.495       .  S
C160        C360   1.488       .  S
N171        C176   1.356   1_545  A
N171        C175   1.354   1_545  A
N171        H203   1.042       .  S
N172        C179   1.351       .  A
N172        C180   1.352       .  A
N173        C178   1.353       .  A
N173        C177   1.353       .  A
N173        H204   1.040       .  S
N174        C181   1.354       .  A
N174        C182   1.352       .  A
C175        C183   1.383       .  A
C175        C191   1.413   1_565  A
C176        C192   1.424   1_665  A
C176        C184   1.390       .  A
C177        C185   1.387       .  A
C177        C194   1.415       .  A
C178        C193   1.414       .  A
C178        C186   1.387       .  A
C179        C191   1.411       .  A
C179        C187   1.386       .  A
C180        C194   1.413       .  A
C180        C188   1.386       .  A
C181        C189   1.390       .  A
C181        C192   1.421   1_655  A
C182        C190   1.382       .  A
C182        C193   1.411       .  A
C183        C184   1.375       .  A
C183        H195   1.082       .  S
C184        H196   1.080   1_655  S
C185        C186   1.376       .  A
C185        H197   1.082       .  S
C186        H198   1.082   1_545  S
C187        C188   1.374       .  A
C187        H199   1.082       .  S
C188        H200   1.082       .  S
C189        C190   1.372       .  A
C189        H201   1.079   1_655  S
C190        H202   1.082       .  S
C191        C384   1.485       .  S
C192        C232   1.503       .  S
C193        C349   1.487       .  S
C194        C504   1.488       .  S
O205        V213   1.903   1_565  S
O205        C215   1.265   1_554  A
O206        V213   1.905       .  S
O206        C216   1.266       .  A
O207        V213   1.905       .  S
O207        C217   1.265   1_554  A
O208        V213   1.904   1_565  S
O208        C218   1.266   1_554  A
O209        V214   1.906   1_565  S
O209        C218   1.266       .  A
O210        V214   1.903       .  S
O210        C217   1.266       .  A
O211        V214   1.903       .  S
O211        C216   1.265   1_556  A
O212        V214   1.902   1_565  S
O212        C215   1.265       .  A
V213        V214   2.079   1_554  T
C216        C253   1.504       .  S
O219        V227   1.895       .  S
O219        C229   1.264       .  A
O220        V227   1.897   1_565  S
O220        C230   1.263       .  A
O221        V227   1.902   1_565  S
O221        C231   1.266       .  A
O222        V227   1.903       .  S
O222        C232   1.265       .  A
O223        V228   1.899       .  S
O223        C232   1.264       .  A
O224        V228   1.896   1_565  S
O224        C231   1.263       .  A
O225        V228   1.906   1_565  S
O225        C230   1.267       .  A
O226        V228   1.909       .  S
O226        C229   1.267       .  A
V227        V228   2.079       .  T
C229        C287   1.503       .  S
N233        C238   1.354       .  A
N233        C237   1.356       .  A
N233        H265   1.042       .  S
N234        C241   1.354       .  A
N234        C242   1.353       .  A
N235        C240   1.353       .  A
N235        C239   1.353       .  A
N235        H266   1.041       .  S
N236        C243   1.351       .  A
N236        C244   1.351       .  A
C237        C245   1.390       .  A
C237        C253   1.423       .  A
C238        C254   1.414       .  A
C238        C246   1.384       .  A
C239        C247   1.388       .  A
C239        C256   1.416       .  A
C240        C255   1.413   1_556  A
C240        C248   1.386       .  A
C241        C253   1.422   1_556  A
C241        C249   1.390       .  A
C242        C256   1.412       .  A
C242        C250   1.383       .  A
C243        C251   1.386       .  A
C243        C254   1.412       .  A
C244        C252   1.386       .  A
C244        C255   1.411       .  A
C245        C246   1.376       .  A
C245        H257   1.081       .  S
C246        H258   1.082       .  S
C247        C248   1.376       .  A
C247        H259   1.082       .  S
C248        H260   1.082       .  S
C249        C250   1.373       .  A
C249        H261   1.079       .  S
C250        H262   1.082       .  S
C251        C252   1.374       .  A
C251        H263   1.082       .  S
C252        H264   1.082       .  S
C254        C325   1.488       .  S
C255        C421   1.486       .  S
C256        C301   1.492       .  S
N267        C272   1.353       .  A
N267        C271   1.357       .  A
N267        H299   1.042       .  S
N268        C275   1.354       .  A
N268        C276   1.352       .  A
N269        C274   1.354       .  A
N269        C273   1.353       .  A
N269        H300   1.040       .  S
N270        C277   1.351       .  A
N270        C278   1.351       .  A
C271        C279   1.391       .  A
C271        C287   1.424       .  A
C272        C288   1.411       .  A
C272        C280   1.382       .  A
C273        C281   1.387       .  A
C273        C290   1.416       .  A
C274        C289   1.416       .  A
C274        C282   1.387       .  A
C275        C287   1.419       .  A
C275        C283   1.388       .  A
C276        C290   1.414       .  A
C276        C284   1.384       .  A
C277        C285   1.386       .  A
C277        C288   1.411       .  A
C278        C286   1.386       .  A
C278        C289   1.412       .  A
C279        C280   1.374       .  A
C279        H291   1.080       .  S
C280        H292   1.083       .  S
C281        C282   1.377       .  A
C281        H293   1.082       .  S
C282        H294   1.082       .  S
C283        C284   1.373       .  A
C283        H295   1.078       .  S
C284        H296   1.082       .  S
C285        C286   1.374       .  A
C285        H297   1.082       .  S
C286        H298   1.082       .  S
C288        C312   1.487       .  S
C289        C408   1.485       .  S
C290        C336   1.491       .  S
C301        C302   1.403       .  A
C301        C306   1.405       .  A
C302        C303   1.398       .  A
C302        H315   1.083       .  S
C303        C304   1.405       .  A
C303        H316   1.083       .  S
C304        C305   1.410       .  A
C304        C307   1.491       .  S
C305        C306   1.400       .  A
C305        H317   1.080       .  S
C306        H318   1.083       .  S
C307        C308   1.349       .  D
C307        H319   1.084       .  S
C308        C309   1.491       .  S
C308        H320   1.084       .  S
C309        C310   1.405       .  A
C309        C314   1.410       .  A
C310        C311   1.399       .  A
C310        H321   1.083       .  S
C311        C312   1.403       .  A
C311        H322   1.083       .  S
C312        C313   1.402       .  A
C313        C314   1.399       .  A
C313        H323   1.083       .  S
C314        H324   1.081       .  S
C325        C326   1.401       .  A
C325        C330   1.404       .  A
C326        C327   1.398       .  A
C326        H339   1.083       .  S
C327        C328   1.405       .  A
C327        H340   1.083       .  S
C328        C329   1.410       .  A
C328        C331   1.491       .  S
C329        C330   1.402       .  A
C329        H341   1.081       .  S
C330        H342   1.083       .  S
C331        C332   1.350       .  D
C331        H343   1.084       .  S
C332        C333   1.493       .  S
C332        H344   1.084       .  S
C333        C334   1.406       .  A
C333        C338   1.409       .  A
C334        C335   1.402       .  A
C334        H345   1.083       .  S
C335        C336   1.404       .  A
C335        H346   1.083       .  S
C336        C337   1.403       .  A
C337        C338   1.398       .  A
C337        H347   1.083       .  S
C338        H348   1.081       .  S
C349        C350   1.401       .  A
C349        C354   1.402   1_545  A
C350        C351   1.398       .  A
C350        H363   1.083       .  S
C351        C352   1.406       .  A
C351        H364   1.083       .  S
C352        C353   1.412   1_545  A
C352        C355   1.494       .  S
C353        C354   1.399       .  A
C353        H365   1.079       .  S
C354        H366   1.083       .  S
C355        C356   1.350       .  D
C355        H367   1.082       .  S
C356        C357   1.494       .  S
C356        H368   1.082   1_545  S
C357        C358   1.405   1_545  A
C357        C362   1.412       .  A
C358        C359   1.396       .  A
C358        H369   1.083       .  S
C359        C360   1.402   1_565  A
C359        H370   1.083       .  S
C360        C361   1.403       .  A
C361        C362   1.401       .  A
C361        H371   1.083       .  S
C362        H372   1.079       .  S
C373        C374   1.404       .  A
C373        C378   1.403   1_565  A
C374        C375   1.400       .  A
C374        H387   1.083       .  S
C375        C376   1.406       .  A
C375        H388   1.083       .  S
C376        C377   1.410   1_565  A
C376        C379   1.493       .  S
C377        C378   1.400       .  A
C377        H389   1.081       .  S
C378        H390   1.083       .  S
C379        C380   1.351   1_565  D
C379        H391   1.083       .  S
C380        C381   1.496       .  S
C380        H392   1.085       .  S
C381        C382   1.413   1_545  A
C381        C386   1.407       .  A
C382        C383   1.403       .  A
C382        H393   1.079       .  S
C383        C384   1.402   1_565  A
C383        H394   1.083       .  S
C384        C385   1.400       .  A
C385        C386   1.398       .  A
C385        H395   1.083       .  S
C386        H396   1.083       .  S
C397        C398   1.402       .  A
C397        C402   1.402       .  A
C398        C399   1.400       .  A
C398        H411   1.083       .  S
C399        C400   1.406       .  A
C399        H412   1.083       .  S
C400        C401   1.410       .  A
C400        C403   1.491       .  S
C401        C402   1.399       .  A
C401        H413   1.081       .  S
C402        H414   1.083       .  S
C403        C404   1.348       .  D
C403        H415   1.085       .  S
C404        C405   1.488       .  S
C404        H416   1.084       .  S
C405        C406   1.404       .  A
C405        C410   1.410       .  A
C406        C407   1.397       .  A
C406        H417   1.083       .  S
C407        C408   1.400       .  A
C407        H418   1.083       .  S
C408        C409   1.403       .  A
C409        C410   1.402       .  A
C409        H419   1.083       .  S
C410        H420   1.082       .  S
C421        C422   1.402   1_554  A
C421        C426   1.403       .  A
C422        C423   1.399       .  A
C422        H435   1.083       .  S
C423        C424   1.404   1_556  A
C423        H436   1.083       .  S
C424        C425   1.408       .  A
C424        C427   1.486       .  S
C425        C426   1.399       .  A
C425        H437   1.082       .  S
C426        H438   1.083       .  S
C427        C428   1.348       .  D
C427        H439   1.086       .  S
C428        C429   1.487       .  S
C428        H440   1.086   1_554  S
C429        C430   1.405   1_554  A
C429        C434   1.408       .  A
C430        C431   1.399       .  A
C430        H441   1.083       .  S
C431        C432   1.403       .  A
C431        H442   1.083       .  S
C432        C433   1.404   1_556  A
C433        C434   1.399       .  A
C433        H443   1.083       .  S
C434        H444   1.082       .  S
C445        C446   1.405       .  A
C445        C450   1.401       .  A
C446        C447   1.401       .  A
C446        H459   1.083       .  S
C447        C448   1.405       .  A
C447        H460   1.083       .  S
C448        C449   1.411       .  A
C448        C451   1.492       .  S
C449        C450   1.397       .  A
C449        H461   1.081       .  S
C450        H462   1.083       .  S
C451        C452   1.349       .  D
C451        H463   1.083       .  S
C452        C453   1.491       .  S
C452        H464   1.084       .  S
C453        C454   1.406       .  A
C453        C458   1.412       .  A
C454        C455   1.394       .  A
C454        H465   1.083       .  S
C455        C456   1.398       .  A
C455        H466   1.083       .  S
C456        C457   1.403       .  A
C457        C458   1.403       .  A
C457        H467   1.083       .  S
C458        H468   1.080       .  S
C469        C470   1.403       .  A
C469        C474   1.403       .  A
C470        C471   1.398       .  A
C470        H483   1.083       .  S
C471        C472   1.406       .  A
C471        H484   1.083       .  S
C472        C473   1.412       .  A
C472        C475   1.495       .  S
C473        C474   1.399       .  A
C473        H485   1.079       .  S
C474        H486   1.083       .  S
C475        C476   1.351       .  D
C475        H487   1.082       .  S
C476        C477   1.494       .  S
C476        H488   1.082       .  S
C477        C478   1.406       .  A
C477        C482   1.412       .  A
C478        C479   1.397       .  A
C478        H489   1.083       .  S
C479        C480   1.402       .  A
C479        H490   1.083       .  S
C480        C481   1.403       .  A
C481        C482   1.400       .  A
C481        H491   1.083       .  S
C482        H492   1.079       .  S
C493        C494   1.400   1_545  A
C493        C498   1.402       .  A
C494        C495   1.397       .  A
C494        H507   1.083       .  S
C495        C496   1.406   1_565  A
C495        H508   1.083       .  S
C496        C497   1.411       .  A
C496        C499   1.493       .  S
C497        C498   1.401       .  A
C497        H509   1.080       .  S
C498        H510   1.083       .  S
C499        C500   1.350       .  D
C499        H511   1.084   1_545  S
C500        C501   1.493       .  S
C500        H512   1.084       .  S
C501        C502   1.406       .  A
C501        C506   1.411       .  A
C502        C503   1.400       .  A
C502        H513   1.083       .  S
C503        C504   1.403       .  A
C503        H514   1.083       .  S
C504        C505   1.402   1_545  A
C505        C506   1.399   1_565  A
C505        H515   1.083       .  S
C506        H516   1.081   1_545  S
C517        C518   1.405   1_565  A
C517        C522   1.406   1_556  A
C518        C519   1.398       .  A
C518        H531   1.083       .  S
C519        C520   1.404   1_545  A
C519        H532   1.083       .  S
C520        C521   1.408   1_556  A
C520        C523   1.487       .  S
C521        C522   1.401       .  A
C521        H533   1.082       .  S
C522        H534   1.083       .  S
C523        C524   1.348   1_556  D
C523        H535   1.087   1_565  S
C524        C525   1.487       .  S
C524        H536   1.086       .  S
C525        C526   1.405   1_554  A
C525        C530   1.408       .  A
C526        C527   1.401       .  A
C526        H537   1.083       .  S
C527        C528   1.403   1_556  A
C527        H538   1.083       .  S
C528        C529   1.401       .  A
C529        C530   1.398       .  A
C529        H539   1.083   1_565  S
C530        H540   1.082   1_565  S
C541        C542   1.405       .  A
C541        C546   1.404       .  A
C542        C543   1.402       .  A
C542        H555   1.083       .  S
C543        C544   1.407       .  A
C543        H556   1.083       .  S
C544        C545   1.410       .  A
C544        C547   1.496       .  S
C545        C546   1.400       .  A
C545        H557   1.080   1_565  S
C546        H558   1.083   1_565  S
C547        C548   1.351       .  D
C547        H559   1.084       .  S
C548        C549   1.494       .  S
C548        H560   1.083   1_565  S
C549        C550   1.411       .  A
C549        C554   1.406   1_565  A
C550        C551   1.403       .  A
C550        H561   1.080       .  S
C551        C552   1.404       .  A
C551        H562   1.083       .  S
C552        C553   1.402   1_565  A
C553        C554   1.398       .  A
C553        H563   1.083       .  S
C554        H564   1.083       .  S
C565        C566   1.404       .  A
C565        C570   1.402   1_545  A
C566        C567   1.402       .  A
C566        H579   1.083       .  S
C567        C568   1.407       .  A
C567        H580   1.083       .  S
C568        C569   1.411   1_545  A
C568        C571   1.495       .  S
C569        C570   1.398       .  A
C569        H581   1.080       .  S
C570        H582   1.083       .  S
C571        C572   1.350   1_545  D
C571        H583   1.085       .  S
C572        C573   1.489       .  S
C572        H584   1.083       .  S
C573        C574   1.405       .  A
C573        C578   1.409   1_565  A
C574        C575   1.397       .  A
C574        H585   1.083       .  S
C575        C576   1.401       .  A
C575        H586   1.083       .  S
C576        C577   1.405   1_565  A
C577        C578   1.402       .  A
C577        H587   1.083       .  S
C578        H588   1.081       .  S
