geometry optimzed in LAMMPS
_audit_creation_date              2020-11-30 
_audit_creation_method            'lammps2cif' 
_symmetry_space_group_name_H-M    'P1' 
_symmetry_Int_Tables_number       1 
_symmetry_cell_setting            triclinic 
loop_ 
_symmetry_equiv_pos_as_xyz 
  x,y,z 
_cell_length_a                    30.78239365 
_cell_length_b                    30.803761600679454 
_cell_length_c                    26.163226603489868 
_cell_angle_alpha                 89.55652473434088 
_cell_angle_beta                  90.72753144103115 
_cell_angle_gamma                 90.14132117301774 
loop_ 
_atom_site_label 
_atom_site_type_symbol 
_atom_site_fract_x 
_atom_site_fract_y 
_atom_site_fract_z 
_atom_site_charge 
O1          O  0.05850042  0.99996410  0.00436333    -0.73900
O2          O  0.93366202  0.00206263  0.00054986    -0.73900
O3          O  0.99473136  0.93865158  0.00246769    -0.74000
O4          O  0.99718275  0.06363081  0.00233454    -0.74000
O5          O  0.99788203  0.06388890  0.41701736    -0.74000
O6          O  0.99527162  0.93972785  0.41720732    -0.74000
O7          O  0.93458253  0.00307215  0.41523269    -0.73900
O8          O  0.05885015  0.00048826  0.41908051    -0.74000
Ni9        Ni  0.99602822  0.00110075  0.00554888     1.25400
Ni10       Ni  0.99674856  0.00182118  0.41418543     1.25400
C11         C  0.07913016  0.99955666  0.46206171     0.88300
C12         C  0.91362099  0.00290257  0.45715230     0.88200
C13         C  0.99430210  0.91868801  0.95960333     0.88200
C14         C  0.99755564  0.08423352  0.95950423     0.88400
O15         O  0.93467600  0.00946750  0.29542104    -0.73900
O16         O  0.05869577  0.00746031  0.30907831    -0.73900
O17         O  0.99867883  0.07005245  0.29441588    -0.74000
O18         O  0.99473126  0.94658131  0.31010271    -0.74000
O19         O  0.00051885  0.93902715  0.22578675    -0.74000
O20         O  0.00490537  0.06263433  0.21005042    -0.74000
O21         O  0.06459344  0.99978343  0.22477069    -0.73900
O22         O  0.94050437  0.00254198  0.21097115    -0.74000
Ni23       Ni  0.99647192  0.00858050  0.30526868     1.25400
Ni24       Ni  0.00277367  0.00063401  0.21487687     1.25400
C25         C  0.91720296  0.00661061  0.25085913     0.88300
C26         C  0.08204422  0.00411895  0.26918122     0.88200
C27         C  0.00305189  0.08660209  0.24969312     0.88200
C28         C  0.99692154  0.92248822  0.27064381     0.88400
O29         O  0.04995776  0.50422897  0.43418120    -0.73900
O30         O  0.04903353  0.50136567  0.08048833    -0.73900
O31         O  0.05113742  0.44078762  0.50676579    -0.73600
O32         O  0.04864424  0.56468696  0.00882659    -0.74000
O33         O  0.97619501  0.56382338  0.50609894    -0.74000
O34         O  0.97866464  0.43859319  0.00481868    -0.74000
O35         O  0.97651189  0.50032633  0.07867823    -0.73900
O36         O  0.97744538  0.50264521  0.43263198    -0.74000
Ni37       Ni  0.05221703  0.50277655  0.00751290     1.25400
Ni38       Ni  0.97454915  0.50119124  0.00548604     1.25400
C39         C  0.01374978  0.50414246  0.40944261     0.88300
C40         C  0.01258341  0.50077968  0.10355444     0.88200
C41         C  0.01556883  0.41919040  0.00596236     0.88200
C42         C  0.01227301  0.58466097  0.00801444     0.88400
O43         O  0.05510149  0.56203336  0.25367325    -0.73900
O44         O  0.04225025  0.43818839  0.25990395    -0.73900
O45         O  0.04846910  0.49814324  0.18392398    -0.74000
O46         O  0.04956108  0.50191658  0.32985816    -0.74000
O47         O  0.97736691  0.50874698  0.32925249    -0.74000
O48         O  0.97631355  0.50533214  0.18295238    -0.74000
O49         O  0.97014446  0.44571071  0.25924343    -0.73900
O50         O  0.98296580  0.56898742  0.25356977    -0.74000
Ni51       Ni  0.05143639  0.49982948  0.25684721     1.25400
Ni52       Ni  0.97413373  0.50751759  0.25615590     1.25400
C53         C  0.02103074  0.58584044  0.25259826     0.88300
C54         C  0.00395858  0.42172493  0.26122587     0.88200
C55         C  0.01234503  0.50125461  0.15947297     0.88200
C56         C  0.01361016  0.50521051  0.35352603     0.88400
O57         O  0.49142438  0.95108338  0.43837287    -0.73900
O58         O  0.49504205  0.95103509  0.08443331    -0.73900
O59         O  0.43085427  0.95766337  0.51254826    -0.74000
O60         O  0.55513425  0.94526679  0.01048029    -0.74000
O61         O  0.56209507  0.01740556  0.50798085    -0.74000
O62         O  0.43866484  0.02967188  0.01373502    -0.74000
O63         O  0.50346299  0.02303954  0.08386717    -0.73900
O64         O  0.49744773  0.02331329  0.43752849    -0.74000
Ni65       Ni  0.49280714  0.94867141  0.01145301     1.25400
Ni66       Ni  0.50066336  0.02590648  0.01070047     1.25400
C67         C  0.49427549  0.98710173  0.41395232     0.88300
C68         C  0.50014423  0.98690647  0.10811577     0.88200
C69         C  0.41444892  0.99586029  0.01413941     0.88200
C70         C  0.57895526  0.97942806  0.50864433     0.88400
O71         O  0.49440203  0.95043776  0.33443308    -0.73900
O72         O  0.50059604  0.95031017  0.18825811    -0.73900
O73         O  0.55965430  0.94853456  0.26643446    -0.74000
O74         O  0.43589150  0.95129484  0.25613615    -0.74000
O75         O  0.43700765  0.02373942  0.25663002    -0.74000
O76         O  0.56194129  0.02093310  0.26457887    -0.74000
O77         O  0.50174736  0.02278137  0.18776851    -0.73900
O78         O  0.49704672  0.02286444  0.33361630    -0.74000
Ni79       Ni  0.49763433  0.94758707  0.26136551     1.25400
Ni80       Ni  0.49954017  0.02519884  0.26065802     1.25400
C81         C  0.49498111  0.98676866  0.35799279     0.88300
C82         C  0.50121444  0.98662800  0.16404153     0.88200
C83         C  0.58122279  0.98406205  0.26731420     0.88200
C84         C  0.41608473  0.98769647  0.25421564     0.88400
C85         C  0.29538781  0.01877766  0.24796738     0.19200
C86         C  0.26854848  0.04063806  0.28206981    -0.18900
C87         C  0.22337320  0.03632729  0.27846911    -0.11200
C88         C  0.20427966  0.01054080  0.24001890     0.21500
C89         C  0.23115202  0.99041763  0.20441869    -0.20500
C90         C  0.27630716  0.99413711  0.20855992    -0.11300
C91         C  0.15650615  0.00529233  0.23493145    -0.15500
C92         C  0.12969525  0.00671864  0.27508267    -0.29400
C93         C  0.34318957  0.02174426  0.25422362    -0.03600
C94         C  0.36851064  0.98686193  0.24781725    -0.40200
H95         H  0.28261131  0.06032063  0.31220202     0.12600
H96         H  0.20354817  0.05363385  0.30537404     0.12200
H97         H  0.21717915  0.97121053  0.17379087     0.11700
H98         H  0.29628210  0.97796132  0.18079191     0.11900
H99         H  0.14315594  0.99904066  0.19701959     0.14700
H100        H  0.14282057  0.01078633  0.31347838     0.13400
H101        H  0.35738920  0.05205953  0.26739643     0.11100
H102        H  0.35365168  0.95580316  0.23859032     0.13100
C103        C  0.70319341  0.01243320  0.26964784     0.19200
C104        C  0.72953843  0.03696351  0.23692865    -0.18900
C105        C  0.77481315  0.03457046  0.24101975    -0.11200
C106        C  0.79459775  0.00808146  0.27861749     0.21500
C107        C  0.76824025  0.98468457  0.31249501    -0.20500
C108        C  0.72294981  0.98645575  0.30778822    -0.11300
C109        C  0.84252967  0.00551536  0.28451542    -0.15500
C110        C  0.86954375  0.00863947  0.24461673    -0.29400
C111        C  0.65525497  0.01560573  0.26425156    -0.03600
C112        C  0.62894052  0.98148826  0.27257059    -0.40200
H113        H  0.71502604  0.05770604  0.20782706     0.12600
H114        H  0.79422574  0.05412220  0.21537302     0.12200
H115        H  0.78274447  0.96473813  0.34237537     0.11700
H116        H  0.70346089  0.96818533  0.33463086     0.11900
H117        H  0.85582903  0.99903764  0.32244081     0.14700
H118        H  0.85645326  0.01189961  0.20606901     0.13400
H119        H  0.64150057  0.04608873  0.25065656     0.11100
H120        H  0.64284176  0.95008653  0.28235901     0.13100
C121        C  0.99644271  0.70817354  0.25429011     0.19200
C122        C  0.97087374  0.73419352  0.28570050    -0.18900
C123        C  0.97283303  0.77943252  0.28181794    -0.11200
C124        C  0.00007773  0.79946889  0.24579239     0.21500
C125        C  0.02483797  0.77337267  0.21355689    -0.20500
C126        C  0.02332768  0.72815244  0.21793968    -0.11300
C127        C  0.00208546  0.84730748  0.23937134    -0.15500
C128        C  0.99484732  0.87502160  0.27775999    -0.29400
C129        C  0.99266780  0.66034038  0.25840806    -0.03600
C130        C  0.02599468  0.63339611  0.24949515    -0.40200
H131        H  0.94939114  0.71945015  0.31338649     0.12600
H132        H  0.95222602  0.79847717  0.30618843     0.12200
H133        H  0.04547918  0.78804355  0.18494882     0.11700
H134        H  0.04237013  0.70892725  0.19203018     0.11900
H135        H  0.01146683  0.86005181  0.20225337     0.14700
H136        H  0.98820752  0.86279914  0.31589684     0.13400
H137        H  0.96182612  0.64699279  0.27092956     0.11100
H138        H  0.05786362  0.64641935  0.24066667     0.13100
C139        C  0.02380942  0.29897346  0.26784482     0.19200
C140        C  0.04717910  0.27050207  0.23712890    -0.18900
C141        C  0.04075876  0.22573224  0.24124760    -0.11200
C142        C  0.01119284  0.20869022  0.27679285     0.21500
C143        C  0.98904929  0.23712757  0.30885899    -0.20500
C144        C  0.99501506  0.28194098  0.30423771    -0.11300
C145        C  0.00417556  0.16138075  0.28256542    -0.15500
C146        C  0.00729379  0.13388704  0.24317360    -0.29400
C147        C  0.03059749  0.34625533  0.26192060    -0.03600
C148        C  0.99783567  0.37455188  0.26635695    -0.40200
H149        H  0.07001893  0.28298040  0.20945490     0.12600
H150        H  0.05951722  0.20456474  0.21721655     0.12200
H151        H  0.96673222  0.22464238  0.33709184     0.11700
H152        H  0.97755876  0.30316774  0.32955826     0.11900
H153        H  0.99522658  0.14903489  0.32001663     0.14700
H154        H  0.01363570  0.14621229  0.20498882     0.13400
H155        H  0.06263123  0.35778640  0.25119592     0.11100
H156        H  0.96514408  0.36277850  0.27342831     0.13100
C157        C  0.29076104  0.97803307  0.50412105     0.19200
C158        C  0.26495169  0.96076549  0.46472084    -0.18900
C159        C  0.21998136  0.96690502  0.46406197    -0.11200
C160        C  0.19979273  0.99001073  0.00336834     0.21500
C161        C  0.22555776  0.00617430  0.04366568    -0.20500
C162        C  0.27073019  0.00065886  0.04381087    -0.11300
C163        C  0.15182902  0.99585071  0.00443440    -0.15500
C164        C  0.12705453  0.99689280  0.96167072    -0.29400
C165        C  0.33838513  0.97088547  0.50349738    -0.03600
C166        C  0.36697181  0.00187638  0.01715400    -0.40200
H167        H  0.27970932  0.94272038  0.43411749     0.12600
H168        H  0.20116784  0.95254420  0.43332958     0.12200
H169        H  0.21071996  0.02330860  0.07493770     0.11700
H170        H  0.28980411  0.01333858  0.07542107     0.11900
H171        H  0.13663408  0.99991069  0.04135941     0.14700
H172        H  0.14215201  0.99535759  0.42444238     0.13400
H173        H  0.35025872  0.94062294  0.48786101     0.11100
H174        H  0.35516779  0.03348786  0.02870860     0.13100
C175        C  0.70097123  0.00366311  0.49434087     0.19200
C176        C  0.72465367  0.02767799  0.45839604    -0.18900
C177        C  0.77001411  0.02550726  0.45784592    -0.11200
C178        C  0.79268054  0.99960994  0.99395640     0.21500
C179        C  0.76895597  0.97632624  0.03057018    -0.20500
C180        C  0.72355537  0.97800168  0.03061070    -0.11300
C181        C  0.84090293  0.99785493  0.99597844    -0.15500
C182        C  0.86571326  0.00411353  0.45457253    -0.29400
C183        C  0.65299614  0.00762412  0.49477790    -0.03600
C184        C  0.62662297  0.97458532  0.50790816    -0.40200
H185        H  0.70797797  0.04810052  0.43059103     0.12600
H186        H  0.78719481  0.04496530  0.43000952     0.12200
H187        H  0.78562390  0.95675568  0.05921715     0.11700
H188        H  0.70622842  0.96012239  0.05977015     0.11900
H189        H  0.85634499  0.98981379  0.03240157     0.14700
H190        H  0.85068469  0.00930095  0.41731349     0.13400
H191        H  0.63892738  0.03818073  0.48185108     0.11100
H192        H  0.64020685  0.94286119  0.01714396     0.13100
C193        C  0.98800869  0.79725992  0.99737240     0.19200
C194        C  0.00472659  0.77243377  0.03826801    -0.18900
C195        C  0.00243326  0.72708849  0.03742127    -0.11200
C196        C  0.98267650  0.70563931  0.99590515     0.21500
C197        C  0.96465956  0.73038704  0.95578375    -0.20500
C198        C  0.96751232  0.77574033  0.95624060    -0.11300
C199        C  0.98008056  0.65760677  0.49416205    -0.15500
C200        C  0.01311232  0.63246038  0.01043639    -0.29400
C201        C  0.99124614  0.84542352  0.99963698    -0.03600
C202        C  0.99200941  0.87082370  0.95760153    -0.40200
H203        H  0.01997886  0.78816835  0.07077705     0.12600
H204        H  0.01559301  0.70884792  0.06957981     0.12200
H205        H  0.94882681  0.71455479  0.92372272     0.11700
H206        H  0.95292778  0.79373560  0.92479755     0.11900
H207        H  0.95172993  0.64272707  0.47630166     0.14700
H208        H  0.04299596  0.64757153  0.02398037     0.13400
H209        H  0.99446498  0.86028206  0.03704045     0.11100
H210        H  0.99112610  0.85630933  0.41989367     0.13100
C211        C  0.99607387  0.20525945  0.99755459     0.19200
C212        C  0.01728444  0.23007666  0.03513306    -0.18900
C213        C  0.01432014  0.27544053  0.03444232    -0.11200
C214        C  0.98939650  0.29693259  0.49643342     0.21500
C215        C  0.96726928  0.27210166  0.45967535    -0.20500
C216        C  0.97071452  0.22680300  0.45992671    -0.11300
C217        C  0.98510885  0.34500073  0.49523198    -0.15500
C218        C  0.01842130  0.37131127  0.00753282    -0.29400
C219        C  0.99932669  0.15706912  0.99971646    -0.03600
C220        C  0.99652162  0.13219537  0.95773648    -0.40200
H221        H  0.03638036  0.21431845  0.06495438     0.12600
H222        H  0.03084796  0.29363755  0.06414750     0.12200
H223        H  0.94748886  0.28783533  0.43046805     0.11700
H224        H  0.95266744  0.20869226  0.43142864     0.11900
H225        H  0.95478912  0.35893806  0.48122095     0.14700
H226        H  0.04979369  0.35732256  0.01749421     0.13400
H227        H  0.00523453  0.14178140  0.03672519     0.11100
H228        H  0.99337798  0.14743899  0.42021825     0.13100
O229        O  0.05844889  0.00001754  0.50429745    -0.73900
O230        O  0.93361196  0.00210926  0.50047494    -0.73900
O231        O  0.99468761  0.93870206  0.50239249    -0.74000
O232        O  0.99712808  0.06368128  0.50226196    -0.74000
O233        O  0.99792226  0.06383981  0.91708938    -0.74000
O234        O  0.99532162  0.93967843  0.91728311    -0.74000
O235        O  0.93463079  0.00301722  0.91530716    -0.73900
O236        O  0.05889220  0.00044612  0.91914594    -0.74000
Ni237      Ni  0.99597774  0.00115101  0.50547608     1.25400
Ni238      Ni  0.99679373  0.00177194  0.91425783     1.25400
C239        C  0.07917638  0.99951283  0.96212322     0.88300
C240        C  0.91367096  0.00285009  0.95722694     0.88200
C241        C  0.99425894  0.91873789  0.45952830     0.88200
C242        C  0.99750836  0.08428340  0.45943140     0.88400
O243        O  0.93462299  0.00942728  0.79549672    -0.73900
O244        O  0.05864294  0.00749622  0.80915745    -0.73900
O245        O  0.99859137  0.07004694  0.79443831    -0.74000
O246        O  0.99471180  0.94658148  0.81023101    -0.74000
O247        O  0.00050614  0.93898227  0.72592226    -0.74000
O248        O  0.00481537  0.06257697  0.71007911    -0.74000
O249        O  0.06454494  0.99977192  0.72485680    -0.73900
O250        O  0.94045588  0.00244992  0.71105341    -0.74000
Ni251      Ni  0.99641882  0.00857973  0.80534558     1.25400
Ni252      Ni  0.00272468  0.00058083  0.71496090     1.25400
C253        C  0.91715266  0.00653428  0.75093708     0.88300
C254        C  0.08199331  0.00414165  0.76926384     0.88200
C255        C  0.00294788  0.08656942  0.74969902     0.88200
C256        C  0.99691531  0.92246723  0.77079139     0.88400
O257        O  0.04991922  0.50417864  0.93417832    -0.73900
O258        O  0.04904829  0.50139992  0.58049456    -0.73900
O259        O  0.05111936  0.44074616  0.00677008    -0.73600
O260        O  0.04868292  0.56472867  0.50883899    -0.74000
O261        O  0.97615626  0.56376951  0.00609814    -0.74000
O262        O  0.97868248  0.43864758  0.50479694    -0.74000
O263        O  0.97652673  0.50037133  0.57866796    -0.73900
O264        O  0.97740700  0.50258198  0.93263878    -0.74000
Ni265      Ni  0.05224496  0.50281814  0.50751823     1.25400
Ni266      Ni  0.97457701  0.50124597  0.50547639     1.25400
C267        C  0.01370932  0.50408370  0.90944462     0.88300
C268        C  0.01259384  0.50081572  0.60355262     0.88200
C269        C  0.01558314  0.41923820  0.50594399     0.88200
C270        C  0.01231514  0.58470870  0.50802029     0.88400
O271        O  0.05510165  0.56200068  0.75372705    -0.73900
O272        O  0.04220298  0.43816030  0.75986615    -0.73900
O273        O  0.04846249  0.49814730  0.68393090    -0.74000
O274        O  0.04952317  0.50185264  0.82986573    -0.74000
O275        O  0.97733155  0.50871071  0.82924994    -0.74000
O276        O  0.97630900  0.50535623  0.68294437    -0.74000
O277        O  0.97009945  0.44570703  0.75920217    -0.73900
O278        O  0.98296789  0.56897843  0.75360651    -0.74000
Ni279      Ni  0.05141317  0.49979800  0.75685528     1.25400
Ni280      Ni  0.97411282  0.50751229  0.75615055     1.25400
C281        C  0.02103893  0.58581879  0.75266375     0.88300
C282        C  0.00390532  0.42170997  0.76117395     0.88200
C283        C  0.01234427  0.50127702  0.65947191     0.88200
C284        C  0.01357065  0.50515497  0.85352840     0.88400
O285        O  0.49146932  0.95105031  0.93837736    -0.73900
O286        O  0.49499226  0.95105771  0.58442673    -0.73900
O287        O  0.43090560  0.95765023  0.01254905    -0.74000
O288        O  0.55508927  0.94531356  0.51047270    -0.74000
O289        O  0.56215655  0.01735715  0.00797638    -0.74000
O290        O  0.43859757  0.02968644  0.51373071    -0.74000
O291        O  0.50339135  0.02306456  0.58386999    -0.73900
O292        O  0.49750311  0.02327952  0.93753067    -0.74000
Ni293      Ni  0.49275974  0.94870063  0.51144758     1.25400
Ni294      Ni  0.50059810  0.02593719  0.51070105     1.25400
C295        C  0.49431594  0.98706879  0.91395597     0.88300
C296        C  0.50008054  0.98692802  0.60811420     0.88200
C297        C  0.41438860  0.99586969  0.51414205     0.88200
C298        C  0.57900752  0.97937553  0.00864927     0.88400
O299        O  0.49440411  0.95041380  0.83442916    -0.73900
O300        O  0.50053594  0.95031821  0.68824835    -0.73900
O301        O  0.55962180  0.94853073  0.76639187    -0.74000
O302        O  0.43585864  0.95127846  0.75616926    -0.74000
O303        O  0.43696491  0.02372296  0.75667388    -0.74000
O304        O  0.56190266  0.02093000  0.76455897    -0.74000
O305        O  0.50168251  0.02278938  0.68777669    -0.73900
O306        O  0.49703666  0.02284108  0.83362640    -0.74000
Ni307      Ni  0.49760294  0.94757822  0.76135790     1.25400
Ni308      Ni  0.49949995  0.02519034  0.76066847     1.25400
C309        C  0.49499184  0.98674106  0.85799636     0.88300
C310        C  0.50114949  0.98664067  0.66404047     0.88200
C311        C  0.58118674  0.98405951  0.76727881     0.88200
C312        C  0.41604570  0.98767697  0.75426985     0.88400
C313        C  0.29534027  0.01874440  0.74804418     0.19200
C314        C  0.26850321  0.04067136  0.78209090    -0.18900
C315        C  0.22332650  0.03636898  0.77849364    -0.11200
C316        C  0.20422980  0.01052329  0.74010150     0.21500
C317        C  0.23109956  0.99032958  0.70455484    -0.20500
C318        C  0.27625501  0.99404221  0.70869304    -0.11300
C319        C  0.15645603  0.00528047  0.73501815    -0.15500
C320        C  0.12964339  0.00676136  0.77516375    -0.29400
C321        C  0.34314386  0.02171634  0.75429035    -0.03600
C322        C  0.36846826  0.98683254  0.74790812    -0.40200
H323        H  0.28256859  0.06040293  0.81217691     0.12600
H324        H  0.20350253  0.05372715  0.80535364     0.12200
H325        H  0.21712393  0.97107465  0.67397064     0.11700
H326        H  0.29622569  0.97781549  0.68096235     0.11900
H327        H  0.14310787  0.99897621  0.69711762     0.14700
H328        H  0.14276771  0.01087824  0.81355265     0.13400
H329        H  0.35734457  0.05204449  0.76742083     0.11100
H330        H  0.35361117  0.95576454  0.73872016     0.13100
C331        C  0.70315253  0.01242406  0.76967580     0.19200
C332        C  0.72951416  0.03694198  0.73696408    -0.18900
C333        C  0.77478618  0.03452989  0.74107137    -0.11200
C334        C  0.79455027  0.00803478  0.77867793     0.21500
C335        C  0.76817626  0.98465236  0.81255045    -0.20500
C336        C  0.72288808  0.98644206  0.80782681    -0.11300
C337        C  0.84247885  0.00545109  0.78458789    -0.15500
C338        C  0.86949484  0.00854770  0.74468926    -0.29400
C339        C  0.65521800  0.01560730  0.76425797    -0.03600
C340        C  0.62890269  0.98148449  0.77253519    -0.40200
H341        H  0.71501708  0.05768713  0.70785485     0.12600
H342        H  0.79421362  0.05407131  0.71542917     0.12200
H343        H  0.78266530  0.96470269  0.84243738     0.11700
H344        H  0.70338374  0.96818079  0.83466300     0.11900
H345        H  0.85577254  0.99899320  0.82251973     0.14700
H346        H  0.85640662  0.01178649  0.70613858     0.13400
H347        H  0.64146990  0.04609971  0.75068501     0.11100
H348        H  0.64280309  0.95007773  0.78230191     0.13100
C349        C  0.99648353  0.70815162  0.75446853     0.19200
C350        C  0.97092144  0.73416517  0.78589416    -0.18900
C351        C  0.97287853  0.77940473  0.78202073    -0.11200
C352        C  0.00011332  0.79944601  0.74598875     0.21500
C353        C  0.02487102  0.77335628  0.71374438    -0.20500
C354        C  0.02336320  0.72813665  0.71811781    -0.11300
C355        C  0.00210652  0.84728251  0.73955847    -0.15500
C356        C  0.99486277  0.87500355  0.77793785    -0.29400
C357        C  0.99270112  0.66031890  0.75856125    -0.03600
C358        C  0.02601809  0.63337317  0.74960909    -0.40200
H359        H  0.94944287  0.71941632  0.81358053     0.12600
H360        H  0.95227483  0.79844562  0.80639927     0.12200
H361        H  0.04550486  0.78803192  0.68513198     0.11700
H362        H  0.04239985  0.70891719  0.69219694     0.11900
H363        H  0.01147794  0.86002114  0.70243407     0.14700
H364        H  0.98822958  0.86279081  0.81608055     0.13400
H365        H  0.96185971  0.64697125  0.77108420     0.11100
H366        H  0.05788870  0.64639306  0.74078179     0.13100
C367        C  0.02371303  0.29895706  0.76766490     0.19200
C368        C  0.04694664  0.27048261  0.73681288    -0.18900
C369        C  0.04053099  0.22571499  0.74096549    -0.11200
C370        C  0.01110580  0.20867814  0.77667799     0.21500
C371        C  0.98909583  0.23712156  0.80886496    -0.20500
C372        C  0.99505562  0.28193323  0.80421179    -0.11300
C373        C  0.00410994  0.16136915  0.78250582    -0.15500
C374        C  0.00715087  0.13385178  0.74312770    -0.29400
C375        C  0.03050806  0.34623415  0.76173066    -0.03600
C376        C  0.99776899  0.37453901  0.76628577    -0.40200
H377        H  0.06967993  0.28295677  0.70901465     0.12600
H378        H  0.05919306  0.20454757  0.71683193     0.12200
H379        H  0.96689190  0.22464222  0.83722547     0.11700
H380        H  0.97770822  0.30316657  0.82962903     0.11900
H381        H  0.99525673  0.14904055  0.81999804     0.14700
H382        H  0.01340596  0.14615208  0.70491149     0.13400
H383        H  0.06252057  0.35775529  0.75090700     0.11100
H384        H  0.96508908  0.36277297  0.77344630     0.13100
C385        C  0.29082525  0.97804685  0.00405357     0.19200
C386        C  0.26501270  0.96082150  0.96463069    -0.18900
C387        C  0.22003963  0.96693704  0.96400542    -0.11200
C388        C  0.19973300  0.99004299  0.50337063     0.21500
C389        C  0.22549278  0.00624411  0.54365197    -0.20500
C390        C  0.27066329  0.00070628  0.54382828    -0.11300
C391        C  0.15177121  0.99590912  0.50440208    -0.15500
C392        C  0.12700937  0.99692071  0.46162607    -0.29400
C393        C  0.33844876  0.97090590  0.00341071    -0.03600
C394        C  0.36690949  0.00187863  0.51716726    -0.40200
H395        H  0.27976898  0.94282347  0.93398781     0.12600
H396        H  0.20122439  0.95260493  0.93325591     0.12200
H397        H  0.21065274  0.02342705  0.57488537     0.11700
H398        H  0.28973377  0.01342041  0.57542209     0.11900
H399        H  0.13656622  0.00001318  0.54131404     0.14700
H400        H  0.14218627  0.99537176  0.92447816     0.13400
H401        H  0.35032381  0.94066651  0.98771515     0.11100
H402        H  0.35510343  0.03350465  0.52866615     0.13100
C403        C  0.70102302  0.00359343  0.99436581     0.19200
C404        C  0.72470909  0.02759661  0.95841496    -0.18900
C405        C  0.77006893  0.02543155  0.95788016    -0.11200
C406        C  0.79263037  0.99966933  0.49390177     0.21500
C407        C  0.76890994  0.97637672  0.53051181    -0.20500
C408        C  0.72350943  0.97805714  0.53056691    -0.11300
C409        C  0.84085382  0.99790681  0.49591009    -0.15500
C410        C  0.86576507  0.00405493  0.95464309    -0.29400
C411        C  0.65304991  0.00755712  0.99479078    -0.03600
C412        C  0.62667309  0.97452306  0.00792287    -0.40200
H413        H  0.70803669  0.04800733  0.93059497     0.12600
H414        H  0.78725215  0.04488293  0.93003945     0.12200
H415        H  0.78558127  0.95679394  0.55914468     0.11700
H416        H  0.70618747  0.96016893  0.55972273     0.11900
H417        H  0.85629972  0.98985357  0.53232766     0.14700
H418        H  0.85074020  0.00922954  0.91738018     0.13400
H419        H  0.63898577  0.03811272  0.98185334     0.11100
H420        H  0.64016153  0.94292329  0.51711772     0.13100
C421        C  0.98804846  0.79731111  0.49731755     0.19200
C422        C  0.00482305  0.77249610  0.53819046    -0.18900
C423        C  0.00253522  0.72715045  0.53736137    -0.11200
C424        C  0.98272966  0.70568916  0.49588521     0.21500
C425        C  0.96466173  0.73042615  0.45578571    -0.20500
C426        C  0.96750724  0.77578006  0.45622504    -0.11300
C427        C  0.98003119  0.65755772  0.99416122    -0.15500
C428        C  0.01316230  0.63250818  0.51043314    -0.29400
C429        C  0.99127082  0.84547558  0.49956991    -0.03600
C430        C  0.99197616  0.87087307  0.45753026    -0.40200
H431        H  0.02011199  0.78824012  0.57066992     0.12600
H432        H  0.01573492  0.70892027  0.56950527     0.12200
H433        H  0.94879153  0.71458507  0.42375567     0.11700
H434        H  0.95288086  0.79376702  0.42480221     0.11900
H435        H  0.95168798  0.64267971  0.97628256     0.14700
H436        H  0.04305258  0.64761640  0.52396042     0.13400
H437        H  0.99452855  0.86033813  0.53696721     0.11100
H438        H  0.99119357  0.85626252  0.91996340     0.13100
C439        C  0.99602857  0.20531256  0.49747619     0.19200
C440        C  0.01720953  0.23012034  0.53508607    -0.18900
C441        C  0.01426471  0.27548540  0.53439309    -0.11200
C442        C  0.98940295  0.29687618  0.99651776     0.21500
C443        C  0.96724633  0.27203487  0.95979372    -0.20500
C444        C  0.97071105  0.22673794  0.96004158    -0.11300
C445        C  0.98509983  0.34494296  0.99531381    -0.15500
C446        C  0.01842523  0.37135826  0.50750356    -0.29400
C447        C  0.99926260  0.15712052  0.49964187    -0.03600
C448        C  0.99647864  0.13224552  0.45766134    -0.40200
H449        H  0.03626725  0.21435351  0.56493523     0.12600
H450        H  0.03076752  0.29367451  0.56412369     0.12200
H451        H  0.94742967  0.28775922  0.93061372     0.11700
H452        H  0.95264268  0.20861839  0.93156916     0.11900
H453        H  0.95476323  0.35886963  0.98134038     0.14700
H454        H  0.04978586  0.35736014  0.51750024     0.13400
H455        H  0.00514263  0.14183193  0.53665597     0.11100
H456        H  0.99339571  0.14739013  0.92029627     0.13100
loop_ 
_geom_bond_atom_site_label_1 
_geom_bond_atom_site_label_2 
_geom_bond_distance 
_geom_bond_site_symmetry_2 
_ccdc_geom_bond_type 
O1           Ni9   1.924   1_465  S
O1          C239   1.282   1_554  A
O2           Ni9   1.923       .  S
O2          C240   1.283   1_554  A
O3           Ni9   1.926   1_565  S
O3           C13   1.283   1_554  A
O4           Ni9   1.928       .  S
O4           C14   1.284   1_554  A
O5          Ni10   1.914       .  S
O5          C242   1.280       .  A
O6          Ni10   1.914   1_565  S
O6          C241   1.279       .  A
O7          Ni10   1.915       .  S
O7           C12   1.279       .  A
O8          Ni10   1.915   1_455  S
O8           C11   1.279   1_545  A
Ni9        Ni238   2.389   1_554  S
Ni10       Ni237   2.389       .  S
C11         O229   1.282   1_565  A
C11         C392   1.476       .  S
C12         O230   1.283       .  A
C12         C182   1.476       .  S
C13         O234   1.279       .  A
C13         C202   1.477       .  S
C14         O233   1.280       .  A
C14         C220   1.478       .  S
O15         Ni23   1.917       .  S
O15          C25   1.281       .  A
O16         Ni23   1.917   1_455  S
O16          C26   1.280       .  A
O17         Ni23   1.914       .  S
O17          C27   1.281   1_655  A
O18         Ni23   1.914   1_565  S
O18          C28   1.279       .  A
O19         Ni24   1.918   1_565  S
O19          C28   1.282   1_455  A
O20         Ni24   1.914       .  S
O20          C27   1.280       .  A
O21         Ni24   1.917   1_565  S
O21          C26   1.282   1_565  A
O22         Ni24   1.919   1_655  S
O22          C25   1.281       .  A
Ni23        Ni24   2.390   1_655  S
C25         C110   1.475       .  S
C26          C92   1.475       .  S
C27         C146   1.471       .  S
C28         C128   1.474       .  S
O29        Ni265   1.919       .  S
O29          C39   1.282       .  A
O30         Ni37   1.913       .  S
O30          C40   1.281       .  A
O31        Ni265   1.911       .  S
O31         C269   1.279       .  A
O32         Ni37   1.911       .  S
O32          C42   1.279       .  A
O33        Ni266   1.928       .  S
O33         C270   1.284   1_655  A
O34         Ni38   1.933       .  S
O34          C41   1.285   1_655  A
O35         Ni38   1.915       .  S
O35          C40   1.280   1_655  A
O36        Ni266   1.909       .  S
O36          C39   1.279   1_655  A
Ni37        O257   1.919   1_554  S
Ni37        O259   1.911       .  S
Ni37        Ni38   2.391   1_455  S
Ni38        O261   1.928       .  S
Ni38        O264   1.909   1_554  S
C39          C56   1.463       .  S
C40          C55   1.463       .  S
C41         O259   1.279       .  A
C41         C218   1.478       .  S
C42         O261   1.284   1_455  A
C42         C200   1.474       .  S
O43         Ni51   1.920       .  S
O43          C53   1.281       .  A
O44         Ni51   1.920       .  S
O44          C54   1.283       .  A
O45         Ni51   1.910       .  S
O45          C55   1.279       .  A
O46         Ni51   1.913       .  S
O46          C56   1.280       .  A
O47         Ni52   1.914       .  S
O47          C56   1.281   1_655  A
O48         Ni52   1.919       .  S
O48          C55   1.282   1_655  A
O49         Ni52   1.909       .  S
O49          C54   1.278   1_655  A
O50         Ni52   1.913       .  S
O50          C53   1.281   1_655  A
Ni51        Ni52   2.392   1_455  S
C53         C130   1.474       .  S
C54         C148   1.470   1_455  S
O57        Ni293   1.913       .  S
O57          C67   1.279       .  A
O58         Ni65   1.912       .  S
O58          C68   1.279       .  A
O59        Ni293   1.927       .  S
O59         C297   1.284       .  A
O60         Ni65   1.922       .  S
O60         C298   1.282       .  A
O61        Ni294   1.914       .  S
O61          C70   1.281   1_545  A
O62         Ni66   1.915       .  S
O62          C69   1.279   1_545  A
O63         Ni66   1.916       .  S
O63          C68   1.281   1_545  A
O64        Ni294   1.918       .  S
O64          C67   1.282   1_545  A
Ni65        O285   1.913   1_554  S
Ni65        O287   1.927       .  S
Ni65        Ni66   2.391   1_565  S
Ni66        O289   1.914       .  S
Ni66        O292   1.918   1_554  S
C67          C81   1.465       .  S
C68          C82   1.463       .  S
C69         O287   1.284       .  A
C69         C166   1.477   1_565  S
C70         O288   1.282       .  A
C70         C184   1.476       .  S
O71         Ni79   1.918       .  S
O71          C81   1.282       .  A
O72         Ni79   1.917       .  S
O72          C82   1.282       .  A
O73         Ni79   1.912       .  S
O73          C83   1.279       .  A
O74         Ni79   1.907       .  S
O74          C84   1.278       .  A
O75         Ni80   1.927       .  S
O75          C84   1.284   1_545  A
O76         Ni80   1.927       .  S
O76          C83   1.284   1_545  A
O77         Ni80   1.911       .  S
O77          C82   1.279   1_545  A
O78         Ni80   1.912       .  S
O78          C81   1.279   1_545  A
Ni79        Ni80   2.391   1_565  S
C83         C112   1.476       .  S
C84          C94   1.472       .  S
C85          C93   1.481       .  S
C85          C86   1.401       .  A
C85          C90   1.407   1_545  A
C86          C87   1.399       .  A
C86          H95   1.083       .  S
C87          C88   1.408       .  A
C87          H96   1.082       .  S
C88          C91   1.483       .  S
C88          C89   1.403   1_545  A
C89          C90   1.397       .  A
C89          H97   1.084       .  S
C90          H98   1.083       .  S
C91          H99   1.087   1_545  S
C91          C92   1.345       .  D
C92         H100   1.086       .  S
C93         H101   1.087       .  S
C93          C94   1.342   1_545  D
C94         H102   1.087       .  S
C103        C111   1.484       .  S
C103        C104   1.402       .  A
C103        C108   1.407   1_545  A
C104        C105   1.398       .  A
C104        H113   1.083       .  S
C105        C106   1.407       .  A
C105        H114   1.083       .  S
C106        C109   1.484       .  S
C106        C107   1.403   1_545  A
C107        C108   1.399       .  A
C107        H115   1.083       .  S
C108        H116   1.083       .  S
C109        H117   1.086   1_545  S
C109        C110   1.346       .  D
C110        H118   1.085       .  S
C111        H119   1.086       .  S
C111        C112   1.343   1_545  D
C112        H120   1.086       .  S
C121        C129   1.481       .  S
C121        C122   1.402       .  A
C121        C126   1.406   1_655  A
C122        C123   1.398       .  A
C122        H131   1.083       .  S
C123        C124   1.408   1_655  A
C123        H132   1.082       .  S
C124        C127   1.483       .  S
C124        C125   1.403       .  A
C125        C126   1.397       .  A
C125        H133   1.083       .  S
C126        H134   1.083       .  S
C127        H135   1.087       .  S
C127        C128   1.344   1_455  D
C128        H136   1.085       .  S
C129        H137   1.087       .  S
C129        C130   1.345   1_655  D
C130        H138   1.086       .  S
C139        C147   1.478       .  S
C139        C140   1.400       .  A
C139        C144   1.407   1_455  A
C140        C141   1.396       .  A
C140        H149   1.083       .  S
C141        C142   1.407       .  A
C141        H150   1.082       .  S
C142        C145   1.480       .  S
C142        C143   1.402   1_455  A
C143        C144   1.397       .  A
C143        H151   1.083       .  S
C144        H152   1.083       .  S
C145        H153   1.087   1_455  S
C145        C146   1.344       .  D
C146        H154   1.086       .  S
C147        H155   1.087       .  S
C147        C148   1.341   1_455  D
C148        H156   1.086       .  S
C157        C165   1.483       .  S
C157        C158   1.401       .  A
C157        C390   1.407   1_565  A
C158        C159   1.397       .  A
C158        H167   1.083       .  S
C159        C388   1.409       .  A
C159        H168   1.082       .  S
C160        C163   1.488       .  S
C160        C161   1.405   1_565  A
C160        C387   1.409   1_554  A
C161        C162   1.401       .  A
C161        H169   1.083       .  S
C162        C385   1.407   1_545  A
C162        H170   1.083       .  S
C163        H171   1.087       .  S
C163        C164   1.346   1_554  D
C164        C239   1.476       .  S
C164        H400   1.086       .  S
C165        H173   1.087       .  S
C165        C394   1.343   1_565  D
C166        H174   1.087       .  S
C166        C393   1.343   1_545  D
H172        C392   1.086       .  S
C175        C183   1.482       .  S
C175        C176   1.403       .  A
C175        C408   1.406   1_545  A
C176        C177   1.398       .  A
C176        H185   1.083       .  S
C177        C406   1.408   1_545  A
C177        H186   1.082       .  S
C178        C181   1.486       .  S
C178        C179   1.404   1_556  A
C178        C405   1.408   1_565  A
C179        C180   1.399       .  A
C179        H187   1.083       .  S
C180        C403   1.406   1_564  A
C180        H188   1.083       .  S
C181        H189   1.087   1_556  S
C181        C410   1.345   1_565  D
C182        H190   1.085       .  S
C182        C409   1.345   1_545  D
C183        H191   1.087       .  S
C183        C184   1.346   1_545  D
C184        H420   1.086       .  S
H192        C412   1.086       .  S
C193        C201   1.488       .  S
C193        C194   1.403   1_656  A
C193        C198   1.410       .  A
C194        C195   1.399       .  A
C194        H203   1.083       .  S
C195        C196   1.407   1_454  A
C195        H204   1.083       .  S
C196        C427   1.484       .  S
C196        C197   1.402       .  A
C197        C198   1.400       .  A
C197        H205   1.083       .  S
C198        H206   1.082       .  S
C199        C424   1.484       .  S
C199        H207   1.087       .  S
C199        C428   1.343   1_655  D
C200        H208   1.087       .  S
C200        C427   1.343   1_454  D
C201        H209   1.087   1_556  S
C201        C202   1.345       .  D
C202        H438   1.085       .  S
H210        C430   1.085       .  S
C211        C219   1.489       .  S
C211        C212   1.404   1_656  A
C211        C444   1.408       .  A
C212        C213   1.401       .  A
C212        H221   1.083       .  S
C213        C442   1.408   1_454  A
C213        H222   1.083       .  S
C214        C217   1.487       .  S
C214        C215   1.402       .  A
C214        C441   1.408   1_655  A
C215        C216   1.400       .  A
C215        H223   1.083       .  S
C216        C439   1.408       .  A
C216        H224   1.082       .  S
C217        H225   1.087       .  S
C217        C446   1.344   1_655  D
C218        H226   1.086       .  S
C218        C445   1.344   1_454  D
C219        H227   1.087   1_656  S
C219        C220   1.346       .  D
C220        H456   1.086       .  S
H228        C448   1.086       .  S
O229       Ni237   1.924   1_455  S
O230       Ni237   1.923       .  S
O231       Ni237   1.926   1_565  S
O231        C241   1.283       .  A
O232       Ni237   1.928       .  S
O232        C242   1.284       .  A
O233       Ni238   1.914       .  S
O234       Ni238   1.914   1_565  S
O235       Ni238   1.915       .  S
O235        C240   1.279       .  A
O236       Ni238   1.915   1_455  S
O236        C239   1.279   1_545  A
C240        C410   1.476       .  S
C241        C430   1.477       .  S
C242        C448   1.478       .  S
O243       Ni251   1.917       .  S
O243        C253   1.281       .  A
O244       Ni251   1.917   1_455  S
O244        C254   1.280       .  A
O245       Ni251   1.914       .  S
O245        C255   1.281   1_655  A
O246       Ni251   1.914   1_565  S
O246        C256   1.279       .  A
O247       Ni252   1.918   1_565  S
O247        C256   1.282   1_455  A
O248       Ni252   1.914       .  S
O248        C255   1.280       .  A
O249       Ni252   1.917   1_565  S
O249        C254   1.282   1_565  A
O250       Ni252   1.919   1_655  S
O250        C253   1.281       .  A
Ni251      Ni252   2.390   1_655  S
C253        C338   1.475       .  S
C254        C320   1.475       .  S
C255        C374   1.471       .  S
C256        C356   1.474       .  S
O257        C267   1.282       .  A
O258       Ni265   1.913       .  S
O258        C268   1.281       .  A
O260       Ni265   1.911       .  S
O260        C270   1.279       .  A
O262       Ni266   1.933       .  S
O262        C269   1.285   1_655  A
O263       Ni266   1.915       .  S
O263        C268   1.280   1_655  A
O264        C267   1.279   1_655  A
Ni265      Ni266   2.391   1_455  S
C267        C284   1.463       .  S
C268        C283   1.463       .  S
C269        C446   1.478       .  S
C270        C428   1.474       .  S
O271       Ni279   1.920       .  S
O271        C281   1.281       .  A
O272       Ni279   1.920       .  S
O272        C282   1.283       .  A
O273       Ni279   1.910       .  S
O273        C283   1.279       .  A
O274       Ni279   1.913       .  S
O274        C284   1.280       .  A
O275       Ni280   1.914       .  S
O275        C284   1.281   1_655  A
O276       Ni280   1.919       .  S
O276        C283   1.282   1_655  A
O277       Ni280   1.909       .  S
O277        C282   1.278   1_655  A
O278       Ni280   1.913       .  S
O278        C281   1.281   1_655  A
Ni279      Ni280   2.392   1_455  S
C281        C358   1.474       .  S
C282        C376   1.470   1_455  S
O285        C295   1.279       .  A
O286       Ni293   1.912       .  S
O286        C296   1.279       .  A
O288       Ni293   1.922       .  S
O289        C298   1.281   1_545  A
O290       Ni294   1.915       .  S
O290        C297   1.279   1_545  A
O291       Ni294   1.917       .  S
O291        C296   1.281   1_545  A
O292        C295   1.282   1_545  A
Ni293      Ni294   2.391   1_565  S
C295        C309   1.465       .  S
C296        C310   1.463       .  S
C297        C394   1.477   1_565  S
C298        C412   1.476       .  S
O299       Ni307   1.918       .  S
O299        C309   1.282       .  A
O300       Ni307   1.917       .  S
O300        C310   1.282       .  A
O301       Ni307   1.912       .  S
O301        C311   1.279       .  A
O302       Ni307   1.907       .  S
O302        C312   1.278       .  A
O303       Ni308   1.927       .  S
O303        C312   1.284   1_545  A
O304       Ni308   1.927       .  S
O304        C311   1.284   1_545  A
O305       Ni308   1.911       .  S
O305        C310   1.279   1_545  A
O306       Ni308   1.912       .  S
O306        C309   1.279   1_545  A
Ni307      Ni308   2.391   1_565  S
C311        C340   1.476       .  S
C312        C322   1.472       .  S
C313        C321   1.481       .  S
C313        C314   1.401       .  A
C313        C318   1.407   1_545  A
C314        C315   1.399       .  A
C314        H323   1.083       .  S
C315        C316   1.408       .  A
C315        H324   1.082       .  S
C316        C319   1.483       .  S
C316        C317   1.403   1_545  A
C317        C318   1.397       .  A
C317        H325   1.084       .  S
C318        H326   1.083       .  S
C319        H327   1.087   1_545  S
C319        C320   1.345       .  D
C320        H328   1.086       .  S
C321        H329   1.087       .  S
C321        C322   1.342   1_545  D
C322        H330   1.087       .  S
C331        C339   1.484       .  S
C331        C332   1.402       .  A
C331        C336   1.407   1_545  A
C332        C333   1.398       .  A
C332        H341   1.083       .  S
C333        C334   1.407       .  A
C333        H342   1.083       .  S
C334        C337   1.484       .  S
C334        C335   1.403   1_545  A
C335        C336   1.399       .  A
C335        H343   1.083       .  S
C336        H344   1.083       .  S
C337        H345   1.086   1_545  S
C337        C338   1.346       .  D
C338        H346   1.085       .  S
C339        H347   1.086       .  S
C339        C340   1.343   1_545  D
C340        H348   1.086       .  S
C349        C357   1.481       .  S
C349        C350   1.402       .  A
C349        C354   1.406   1_655  A
C350        C351   1.398       .  A
C350        H359   1.083       .  S
C351        C352   1.408   1_655  A
C351        H360   1.082       .  S
C352        C355   1.483       .  S
C352        C353   1.403       .  A
C353        C354   1.397       .  A
C353        H361   1.083       .  S
C354        H362   1.083       .  S
C355        H363   1.087       .  S
C355        C356   1.344   1_455  D
C356        H364   1.085       .  S
C357        H365   1.087       .  S
C357        C358   1.345   1_655  D
C358        H366   1.086       .  S
C367        C375   1.478       .  S
C367        C368   1.400       .  A
C367        C372   1.407   1_455  A
C368        C369   1.396       .  A
C368        H377   1.083       .  S
C369        C370   1.407       .  A
C369        H378   1.082       .  S
C370        C373   1.480       .  S
C370        C371   1.402   1_455  A
C371        C372   1.397       .  A
C371        H379   1.083       .  S
C372        H380   1.083       .  S
C373        H381   1.087   1_455  S
C373        C374   1.344       .  D
C374        H382   1.086       .  S
C375        H383   1.087       .  S
C375        C376   1.341   1_455  D
C376        H384   1.086       .  S
C385        C393   1.483       .  S
C385        C386   1.401   1_554  A
C386        C387   1.397       .  A
C386        H395   1.083       .  S
C387        H396   1.082       .  S
C388        C391   1.488       .  S
C388        C389   1.405   1_565  A
C389        C390   1.401       .  A
C389        H397   1.083       .  S
C390        H398   1.083       .  S
C391        H399   1.087   1_565  S
C391        C392   1.346       .  D
C393        H401   1.087   1_554  S
C394        H402   1.087       .  S
C403        C411   1.482       .  S
C403        C404   1.402       .  A
C404        C405   1.398       .  A
C404        H413   1.083       .  S
C405        H414   1.082       .  S
C406        C409   1.486       .  S
C406        C407   1.404       .  A
C407        C408   1.399       .  A
C407        H415   1.083       .  S
C408        H416   1.083       .  S
C409        H417   1.087       .  S
C410        H418   1.085       .  S
C411        H419   1.087       .  S
C411        C412   1.345   1_546  D
C421        C429   1.488       .  S
C421        C422   1.403   1_655  A
C421        C426   1.410       .  A
C422        C423   1.399       .  A
C422        H431   1.083       .  S
C423        C424   1.407   1_455  A
C423        H432   1.083       .  S
C424        C425   1.402       .  A
C425        C426   1.400       .  A
C425        H433   1.083       .  S
C426        H434   1.082       .  S
C427        H435   1.087       .  S
C428        H436   1.087       .  S
C429        H437   1.087       .  S
C429        C430   1.345       .  D
C439        C447   1.489       .  S
C439        C440   1.404   1_655  A
C440        C441   1.401       .  A
C440        H449   1.083       .  S
C441        H450   1.083       .  S
C442        C445   1.487       .  S
C442        C443   1.402       .  A
C443        C444   1.400       .  A
C443        H451   1.083       .  S
C444        H452   1.082       .  S
C445        H453   1.087       .  S
C446        H454   1.086       .  S
C447        H455   1.087   1_655  S
C447        C448   1.346       .  D
