geometry optimzed in LAMMPS
_audit_creation_date              2020-11-30 
_audit_creation_method            'lammps2cif' 
_symmetry_space_group_name_H-M    'P1' 
_symmetry_Int_Tables_number       1 
_symmetry_cell_setting            triclinic 
loop_ 
_symmetry_equiv_pos_as_xyz 
  x,y,z 
_cell_length_a                    34.50675382 
_cell_length_b                    34.57941070250548 
_cell_length_c                    44.409736906206525 
_cell_angle_alpha                 87.78426368176486 
_cell_angle_beta                  90.41432406490522 
_cell_angle_gamma                 90.18005278364254 
loop_ 
_atom_site_label 
_atom_site_type_symbol 
_atom_site_fract_x 
_atom_site_fract_y 
_atom_site_fract_z 
_atom_site_charge 
N1          N  0.47659181  0.21534623  0.48638184     0.01200
C2          C  0.43939954  0.22875619  0.02189242     0.03800
C3          C  0.45135124  0.21771207  0.43985172    -0.19100
C4          C  0.47826391  0.18841104  0.44142721    -0.19300
C5          C  0.49163548  0.18587779  0.47079406     0.03600
H6          H  0.43060143  0.22239573  0.42167402     0.17400
H7          H  0.48187185  0.16684343  0.42464109     0.17500
N8          N  0.46548754  0.20999218  0.23961959     0.01200
C9          C  0.48432464  0.18226498  0.22456174     0.03800
C10         C  0.47169372  0.18312478  0.19493993    -0.19100
C11         C  0.44143686  0.20893724  0.19273493    -0.19300
C12         C  0.43672807  0.22335844  0.22098895     0.03600
H13         H  0.47820443  0.16190784  0.17840974     0.17400
H14         H  0.42087358  0.21117492  0.17421838     0.17500
N15         N  0.22759746  0.45948359  0.01737820     0.01200
C16         C  0.25629133  0.47400555  0.03472672     0.03800
C17         C  0.25336014  0.45849291  0.06373595    -0.19100
C18         C  0.22473544  0.43069704  0.06328918    -0.19300
C19         C  0.21107567  0.42998103  0.03400874     0.03600
H20         H  0.27451746  0.46132099  0.08165641     0.17400
H21         H  0.22006819  0.40860520  0.08085886     0.17500
N22         N  0.22162381  0.46180284  0.22451128     0.01200
C23         C  0.24922717  0.47822509  0.20638025     0.03800
C24         C  0.24478119  0.46517923  0.17754677    -0.19100
C25         C  0.21668830  0.43686229  0.17887786    -0.19300
C26         C  0.20471869  0.43358870  0.20844680     0.03600
H27         H  0.26488875  0.46977440  0.15913070     0.17400
H28         H  0.21153318  0.41602720  0.16169273     0.17500
Zn29       Zn  0.43988400  0.42807243  0.01826062     1.49700
Zn30       Zn  0.44761664  0.50411238  0.46313216     1.49400
Zn31       Zn  0.50756251  0.98946743  0.03358944     1.49100
Zn32       Zn  0.00566766  0.43247456  0.47511543     1.49500
O33         O  0.47250062  0.46346320  0.99389916    -1.79500
O34         O  0.38498362  0.44865480  0.01923882    -0.70100
O35         O  0.47356216  0.05592468  0.47873737    -0.69900
O36         O  0.50003022  0.47540893  0.06383260    -0.69500
O37         O  0.38980422  0.50404437  0.46849131    -0.70100
O38         O  0.45881022  0.42577191  0.06138496    -0.69700
O39         O  0.50809530  0.04763761  0.02641266    -0.70300
O40         O  0.06236388  0.43386338  0.48842996    -0.69700
O41         O  0.45810567  0.48576465  0.42154205    -0.70500
O42         O  0.05904165  0.97202384  0.02932510    -0.69900
O43         O  0.50099486  0.43832885  0.42841728    -0.70300
O44         O  0.98635083  0.37836861  0.48743111    -0.70200
O45         O  0.43906907  0.37333847  0.00249674    -0.70000
C46         C  0.36733581  0.47723824  0.00649851     0.81800
C47         C  0.49114172  0.07044879  0.00742659     0.82300
C48         C  0.48045898  0.44790349  0.07647574     0.81200
C49         C  0.07986712  0.44712207  0.99001031     0.81600
C50         C  0.48064091  0.46056926  0.41109600     0.82700
C51         C  0.45733415  0.35862195  0.98090854     0.81800
Zn52       Zn  0.50757609  0.99216796  0.28121223     1.49700
Zn53       Zn  0.44598781  0.50368676  0.21506369     1.49400
Zn54       Zn  0.99644803  0.42624598  0.22260832     1.49100
Zn55       Zn  0.42605787  0.44157949  0.26694087     1.49500
O56         O  0.46858171  0.46528337  0.24343209    -1.79500
O57         O  0.50787604  0.05043441  0.27045782    -0.70100
O58         O  0.46393500  0.49423032  0.17339258    -0.69900
O59         O  0.05433645  0.42683532  0.23446736    -0.69500
O60         O  0.46805043  0.05422899  0.23080431    -0.70100
O61         O  0.06355200  0.97207192  0.27561545    -0.69700
O62         O  0.49312786  0.43680319  0.17570543    -0.70300
O63         O  0.42854438  0.38334505  0.26557852    -0.69700
O64         O  0.38715293  0.50261260  0.21491828    -0.70500
O65         O  0.97523691  0.37254638  0.23488452    -0.69900
O66         O  0.37313883  0.45894755  0.25132417    -0.70300
O67         O  0.43111063  0.45394160  0.31096105    -0.70200
O68         O  0.48891636  0.48244815  0.31396423    -0.70000
C69         C  0.49089397  0.06999376  0.24933001     0.81800
C70         C  0.48095532  0.46674445  0.16074860     0.82300
C71         C  0.07370655  0.44739017  0.25254715     0.81200
C72         C  0.44932028  0.35975950  0.25151958     0.81600
C73         C  0.36261433  0.48323995  0.23059961     0.82700
C74         C  0.45860943  0.46813148  0.32635138     0.81800
N75         N  0.97554065  0.21897284  0.97743107     0.01200
C76         C  0.00482121  0.20212655  0.96245685     0.03800
C77         C  0.01552854  0.22218031  0.56401011    -0.19100
C78         C  0.98850068  0.25137477  0.56333282    -0.19300
C79         C  0.46411625  0.24725351  0.95709373     0.03600
H80         H  0.03737777  0.21756872  0.58139770     0.17400
H81         H  0.98585466  0.27305908  0.58014296     0.17500
N82         N  0.97154109  0.21988002  0.26896824     0.01200
C83         C  0.99854510  0.20476740  0.28846075     0.03800
C84         C  0.99339854  0.21986462  0.31647895    -0.19100
C85         C  0.96533750  0.24794195  0.31320245    -0.19300
C86         C  0.45351552  0.24908884  0.28415914     0.03600
H87         H  0.01294882  0.21655688  0.33558570     0.17400
H88         H  0.95955673  0.26980824  0.32937426     0.17500
N89         N  0.22484627  0.97318652  0.52447057     0.01200
C90         C  0.19215501  0.45832046  0.53283514     0.03800
C91         C  0.19369341  0.96353554  0.06552144    -0.19100
C92         C  0.22297220  0.99064399  0.06555691    -0.19300
C93         C  0.23581743  0.99507273  0.03624869     0.03600
H94         H  0.17301220  0.95861558  0.08349865     0.17400
H95         H  0.22849815  0.01027134  0.08352847     0.17500
N96         N  0.21863764  0.96753568  0.26590405     0.01200
C97         C  0.18804803  0.45138758  0.27347023     0.03800
C98         C  0.19515381  0.96006215  0.31254216    -0.19100
C99         C  0.22175379  0.98977578  0.31249041    -0.21700
C100        C  0.23399940  0.99549031  0.28314999     0.03600
H101        H  0.17507535  0.95327834  0.33062895     0.17400
H102        H  0.22572461  0.00962020  0.33054067     0.17500
Zn103      Zn  0.25399965  0.25508868  0.47317574     1.49700
Zn104      Zn  0.20364596  0.17668667  0.48292123     1.49400
Zn105      Zn  0.25959603  0.18997844  0.02912171     1.49100
Zn106      Zn  0.17939978  0.23538558  0.02790533     1.49500
O107        O  0.22052907  0.21403113  0.00279414    -1.79500
O108        O  0.24274318  0.23810644  0.43118566    -0.70100
O109        O  0.22378829  0.12415441  0.49743260    -0.69900
O110        O  0.31286521  0.20905694  0.01931589    -0.69500
O111        O  0.21207694  0.18165081  0.43758003    -0.70100
O112        O  0.31247767  0.25788514  0.47665975    -0.69700
O113        O  0.25964384  0.13182222  0.02734139    -0.70300
O114        O  0.18788987  0.22046142  0.07264255    -0.69700
O115        O  0.14534540  0.17731988  0.49259573    -0.70500
O116        O  0.24970277  0.20230847  0.07183348    -0.69900
O117        O  0.12593586  0.21812959  0.01335110    -0.70300
O118        O  0.18179324  0.29445242  0.02486233    -0.70200
O119        O  0.23228559  0.30868206  0.47689023    -0.70000
C120        C  0.22730313  0.20799101  0.42055054     0.81800
C121        C  0.24103094  0.10837631  0.01126479     0.82300
C122        C  0.32658506  0.23500240  0.00137326     0.81200
C123        C  0.21956070  0.21138842  0.08616408     0.81600
C124        C  0.11538914  0.19443274  0.99351957     0.82700
C125        C  0.20140316  0.31878290  0.00886208     0.81800
Zn126      Zn  0.18485887  0.17564717  0.23490120     1.49700
Zn127      Zn  0.24201081  0.24739434  0.22136623     1.49400
Zn128      Zn  0.18394583  0.24981179  0.27653987     1.49100
Zn129      Zn  0.25706377  0.19178611  0.27942471     1.49500
O130        O  0.21697982  0.21598659  0.25318017    -1.79500
O131        O  0.18178330  0.18379231  0.18936225    -0.70100
O132        O  0.22548930  0.30314383  0.22214781    -0.69900
O133        O  0.12890533  0.22949213  0.27735532    -0.69500
O134        O  0.22633940  0.22936017  0.18062396    -0.70100
O135        O  0.12969124  0.17640148  0.25054886    -0.69700
O136        O  0.18301697  0.30528068  0.25946116    -0.70300
O137        O  0.24759668  0.20445257  0.32316918    -0.69700
O138        O  0.30026108  0.24539319  0.22470303    -0.70500
O139        O  0.20211301  0.25008260  0.31982105    -0.69900
O140        O  0.31130560  0.20967391  0.26666190    -0.70300
O141        O  0.25597866  0.13329924  0.27657420    -0.70200
O142        O  0.20738444  0.12227415  0.24470549    -0.70000
C143        C  0.20130550  0.20543744  0.17121158     0.81800
C144        C  0.20162885  0.32162304  0.23781821     0.82300
C145        C  0.11195732  0.20020491  0.26668591     0.81200
C146        C  0.22575442  0.22909975  0.33528031     0.81600
C147        C  0.32342796  0.22977754  0.24392621     0.82700
C148        C  0.23497982  0.11021185  0.26180715     0.81800
C149        C  0.22752690  0.20317205  0.38766870    -0.11800
C150        C  0.22743624  0.23376665  0.36808172    -0.27000
H151        H  0.22596065  0.17404061  0.37934725     0.17200
H152        H  0.22515265  0.26285613  0.37634895     0.17800
C153        C  0.22321198  0.21287604  0.11910807    -0.11800
C154        C  0.19480573  0.20304078  0.13841141    -0.27000
H155        H  0.25158483  0.22054406  0.12790594     0.17200
H156        H  0.16734825  0.19206443  0.13013470     0.17800
C157        C  0.24169116  0.03465883  0.27192939    -0.08600
C158        C  0.24122037  0.06907266  0.26579879    -0.10200
C159        C  0.24553559  0.03351686  0.02471457    -0.08600
C160        C  0.24608005  0.06746208  0.01716562    -0.10200
C161        C  0.03739833  0.19515329  0.27934624    -0.08600
C162        C  0.07138406  0.19453429  0.27294282    -0.10200
C163        C  0.04183471  0.19253371  0.97643695    -0.08600
C164        C  0.07480078  0.19098052  0.98592516    -0.10200
C165        C  0.11495911  0.44165758  0.25657255    -0.08600
C166        C  0.14920012  0.44257021  0.26286075    -0.10200
C167        C  0.44486544  0.31894004  0.25869908    -0.08600
C168        C  0.44520265  0.28594062  0.26883846    -0.10200
C169        C  0.12096085  0.44268133  0.98659735    -0.08600
C170        C  0.15473449  0.44392864  0.97974981    -0.10200
C171        C  0.45214724  0.31835745  0.97457563    -0.08600
C172        C  0.45360821  0.28506168  0.96726078    -0.10200
C173        C  0.45475434  0.46847088  0.35935367    -0.11800
C174        C  0.48399492  0.45793847  0.37808459    -0.27000
H175        H  0.42678177  0.47612106  0.36847647     0.17200
H176        H  0.51077208  0.44692214  0.36897783     0.17800
C177        C  0.48176623  0.44147913  0.10955392    -0.11800
C178        C  0.48649846  0.47098546  0.12790746    -0.27000
H179        H  0.47434867  0.41297498  0.11900189     0.17200
H180        H  0.48993275  0.50015198  0.11824381     0.17800
C181        C  0.19592914  0.36211815  0.23041772    -0.08600
C182        C  0.19605574  0.39556259  0.22143989    -0.10200
C183        C  0.28793563  0.48712922  0.21688128    -0.08600
C184        C  0.32186077  0.48774262  0.22394285    -0.10200
C185        C  0.20043970  0.39293864  0.02188580    -0.08600
C186        C  0.19807031  0.35959809  0.01448898    -0.10200
C187        C  0.32739051  0.48345957  0.01420824    -0.08600
C188        C  0.29423903  0.48344504  0.02285428    -0.10200
C189        C  0.49542508  0.14524839  0.23833758    -0.08600
C190        C  0.49683917  0.11124042  0.24580127    -0.10200
C191        C  0.39819856  0.23214825  0.23144056    -0.08600
C192        C  0.36448711  0.23326518  0.23863869    -0.10200
C193        C  0.49373695  0.14553217  0.01615430    -0.08600
C194        C  0.49542102  0.11160876  0.01056088    -0.10200
C195        C  0.36802040  0.24098023  0.00218123    -0.08600
C196        C  0.40219184  0.23930526  0.00856399    -0.10200
N197        N  0.46834980  0.21163312  0.00665501     0.01200
C198        C  0.44896012  0.23214033  0.46833374     0.03800
C199        C  0.44054890  0.21596803  0.05172791    -0.19100
C200        C  0.46827370  0.18748571  0.05411702    -0.19300
C201        C  0.48331489  0.18369525  0.02568109     0.03600
H202        H  0.41882436  0.22123470  0.06855103     0.17400
H203        H  0.47155462  0.16707978  0.07307860     0.17500
N204        N  0.44703423  0.21558548  0.78878371     0.01200
C205        C  0.45118216  0.17786502  0.79841364     0.03800
C206        C  0.41738279  0.16349489  0.81089123    -0.19100
C207        C  0.39055326  0.19215720  0.80755933    -0.19300
C208        C  0.40898700  0.22310968  0.79332553     0.03600
H209        H  0.41120402  0.13357629  0.81730648     0.17400
H210        H  0.35969638  0.18877897  0.81110087     0.17500
N211        N  0.22599643  0.46521054  0.48385499     0.01200
C212        C  0.25364256  0.48073729  0.46543011     0.03800
C213        C  0.24934612  0.46641844  0.43700692    -0.19100
C214        C  0.22096103  0.43841789  0.43895876    -0.19300
C215        C  0.20886230  0.43635847  0.46854030     0.03600
H216        H  0.26955581  0.47014160  0.41857267     0.17400
H217        H  0.21567156  0.41694646  0.42228310     0.17500
N218        N  0.20969548  0.47803933  0.72358070     0.01200
C219        C  0.23717200  0.49538366  0.70584172     0.03800
C220        C  0.23286202  0.48347865  0.67668623    -0.19100
C221        C  0.20490610  0.45499091  0.67732070    -0.19300
C222        C  0.19298865  0.45032373  0.70685540     0.03600
H223        H  0.25291844  0.48901480  0.65836471     0.17400
H224        H  0.19988691  0.43490274  0.65958278     0.17500
Zn225      Zn  0.43457927  0.44687480  0.52121703     1.49700
Zn226      Zn  0.43951494  0.50185285  0.97217415     1.49400
Zn227      Zn  0.51137801  0.99694698  0.53225428     1.49100
Zn228      Zn  0.00039235  0.43226236  0.96427057     1.49500
O229        O  0.47347943  0.47139941  0.49417879    -1.79500
O230        O  0.38002480  0.46433532  0.50845121    -0.70100
O231        O  0.46865713  0.05800431  0.98701603    -0.69900
O232        O  0.49153949  0.50454384  0.56143324    -0.69500
O233        O  0.38402904  0.50019668  0.98753692    -0.70100
O234        O  0.44441838  0.46055755  0.56507536    -0.69700
O235        O  0.51176855  0.05473215  0.51936447    -0.70300
O236        O  0.05764021  0.43056545  0.97157094    -0.69700
O237        O  0.44136042  0.49643528  0.92660006    -0.70500
O238        O  0.06581268  0.97924919  0.53065990    -0.69900
O239        O  0.49187058  0.45708187  0.92314153    -0.70300
O240        O  0.98040875  0.37751668  0.96420991    -0.70200
O241        O  0.43730275  0.38815481  0.51978165    -0.70000
C242        C  0.36727488  0.48675467  0.48714158     0.81800
C243        C  0.49551678  0.07296810  0.49717852     0.82300
C244        C  0.46729850  0.48469353  0.57709200     0.81200
C245        C  0.08031930  0.45485847  0.50695828     0.81600
C246        C  0.46691549  0.47984186  0.91102584     0.82700
C247        C  0.45844927  0.36521597  0.50531312     0.81800
Zn248      Zn  0.49865279  0.99646613  0.78346191     1.49700
Zn249      Zn  0.43394492  0.51832190  0.71350832     1.49400
Zn250      Zn  0.98317846  0.44138143  0.72724146     1.49100
Zn251      Zn  0.41249749  0.46284052  0.77034875     1.49500
O252        O  0.45533562  0.48418115  0.74566174    -1.79500
O253        O  0.49979090  0.05470366  0.78226087    -0.70100
O254        O  0.44773208  0.49953200  0.67229384    -0.69900
O255        O  0.04144987  0.44423655  0.73552480    -0.69500
O256        O  0.45788070  0.07137029  0.74571382    -0.70100
O257        O  0.05024925  0.97865891  0.77434231    -0.69700
O258        O  0.47507786  0.44212267  0.68185584    -0.70300
O259        O  0.41706955  0.40429600  0.77572017    -0.69700
O260        O  0.37502651  0.51967894  0.71513022    -0.70500
O261        O  0.96544568  0.39000641  0.74550987    -0.69900
O262        O  0.36017146  0.47743627  0.75242506    -0.70300
O263        O  0.41486690  0.48195582  0.81268051    -0.70200
O264        O  0.47351247  0.50877127  0.81496019    -0.70000
C265        C  0.48160775  0.08024059  0.76647148     0.81800
C266        C  0.46209499  0.46813030  0.66327796     0.82300
C267        C  0.06132063  0.46476858  0.75320304     0.81200
C268        C  0.44081354  0.38006147  0.76541682     0.81600
C269        C  0.35015244  0.50105969  0.73108511     0.82700
C270        C  0.44239521  0.49673497  0.82761061     0.81800
N271        N  0.98713876  0.22393790  0.51847328     0.01200
C272        C  0.01579481  0.20723442  0.53563249     0.03800
C273        C  0.00357146  0.21413701  0.93246394    -0.19100
C274        C  0.97529698  0.24206073  0.92966869    -0.19300
C275        C  0.46985777  0.25298885  0.53284961     0.03600
H276        H  0.02547863  0.20890663  0.91577315     0.17400
H277        H  0.97184534  0.26206989  0.91046946     0.17500
N278        N  0.97501887  0.24382688  0.79100731     0.01200
C279        C  0.01094658  0.23406907  0.80132156     0.03800
C280        C  0.02436820  0.26047265  0.82146907    -0.19100
C281        C  0.99704128  0.28891762  0.82240943    -0.19300
C282        C  0.46867553  0.27862613  0.80551403     0.03600
H283        H  0.05350751  0.26230974  0.83052661     0.17400
H284        H  0.00100755  0.31670621  0.83244616     0.17500
N285        N  0.21826729  0.96843118  0.01902835     0.01200
C286        C  0.19271725  0.45431844  0.96864865     0.03800
C287        C  0.20087522  0.96877103  0.57120928    -0.19100
C288        C  0.22989705  0.99613407  0.57082703    -0.19300
C289        C  0.24253630  0.00012444  0.54144694     0.03600
H290        H  0.18039103  0.96398003  0.58934479     0.17400
H291        H  0.23556112  0.01599866  0.58861405     0.17500
N292        N  0.20480125  0.98219123  0.76237173     0.01200
C293        C  0.17611633  0.46591134  0.77236307     0.03800
C294        C  0.17786081  0.97582618  0.80798139    -0.19100
C295        C  0.20395979  0.00596170  0.80852412    -0.21700
C296        C  0.21848301  0.01080337  0.77974699     0.03600
H297        H  0.15665471  0.96916170  0.82529371     0.17400
H298        H  0.20641057  0.02636344  0.82633587     0.17500
Zn299      Zn  0.24536157  0.25510385  0.97736997     1.49700
Zn300      Zn  0.19860037  0.17403611  0.97770717     1.49400
Zn301      Zn  0.27406771  0.19606001  0.52828165     1.49100
Zn302      Zn  0.19576598  0.24672637  0.52815960     1.49500
O303        O  0.23180824  0.21840495  0.50312817    -1.79500
O304        O  0.23441862  0.24594620  0.93270133    -0.70100
O305        O  0.21679150  0.12008677  0.99117034    -0.69900
O306        O  0.32669645  0.21433312  0.51325404    -0.69500
O307        O  0.21305724  0.18493979  0.93425008    -0.70100
O308        O  0.30478463  0.25531884  0.98366065    -0.69700
O309        O  0.27275762  0.13712547  0.52840206    -0.70300
O310        O  0.21111984  0.24077929  0.57187847    -0.69700
O311        O  0.13985401  0.17529307  0.97882875    -0.70500
O312        O  0.26814605  0.21080437  0.57174514    -0.69900
O313        O  0.14244318  0.22446642  0.52523405    -0.70300
O314        O  0.19210069  0.30426734  0.51580694    -0.70200
O315        O  0.22563530  0.30804211  0.98929402    -0.70000
C316        C  0.22408537  0.21530848  0.91950635     0.81800
C317        C  0.25091005  0.11309592  0.51532132     0.82300
C318        C  0.33704840  0.23912976  0.49290550     0.81200
C319        C  0.24063433  0.22666033  0.58567322     0.81600
C320        C  0.12637412  0.19784162  0.51065167     0.82700
C321        C  0.20841187  0.32392866  0.49457303     0.81800
Zn322      Zn  0.18134615  0.19478715  0.72953136     1.49700
Zn323      Zn  0.24176200  0.26595563  0.72284325     1.49400
Zn324      Zn  0.18017840  0.26606555  0.77511718     1.49100
Zn325      Zn  0.24665449  0.20454623  0.77901134     1.49500
O326        O  0.21228883  0.23266481  0.75127237    -1.79500
O327        O  0.18678774  0.20562063  0.68435759    -0.70100
O328        O  0.21966117  0.32021890  0.72025720    -0.69900
O329        O  0.12686710  0.24344117  0.77588953    -0.69500
O330        O  0.23760456  0.24563367  0.68100734    -0.70100
O331        O  0.12494138  0.19655685  0.74274544    -0.69700
O332        O  0.17661535  0.32110547  0.75722828    -0.70300
O333        O  0.23406767  0.21374444  0.82250282    -0.69700
O334        O  0.29818433  0.27016092  0.73551245    -0.70500
O335        O  0.19827004  0.26699062  0.81883793    -0.69900
O336        O  0.29982358  0.22544193  0.77302870    -0.70300
O337        O  0.24624146  0.14670830  0.77351609    -0.70200
O338        O  0.19968293  0.13943037  0.73931305    -0.70000
C339        C  0.21218960  0.22428782  0.66883131     0.81800
C340        C  0.19432383  0.33778853  0.73525983     0.82300
C341        C  0.10884857  0.21694327  0.76240331     0.81200
C342        C  0.21699589  0.24171892  0.83465056     0.81600
C343        C  0.31620533  0.25122300  0.75633696     0.82700
C344        C  0.22529093  0.12525576  0.75736585     0.81800
C345        C  0.22494288  0.21386823  0.88628901    -0.11800
C346        C  0.21867196  0.24498687  0.86780271    -0.27000
H347        H  0.22801828  0.18557684  0.87675133     0.17200
H348        H  0.21240422  0.27279236  0.87721977     0.17800
C349        C  0.24281661  0.22833425  0.61871041    -0.11800
C350        C  0.21124760  0.22191419  0.63576933    -0.27000
H351        H  0.27090390  0.23291782  0.62923477     0.17200
H352        H  0.18401745  0.21395365  0.62516662     0.17800
C353        C  0.22768268  0.04948529  0.76808443    -0.08600
C354        C  0.22892136  0.08373502  0.76127482    -0.10200
C355        C  0.25344922  0.03826795  0.52972283    -0.08600
C356        C  0.25538385  0.07220582  0.52211988    -0.10200
C357        C  0.03883726  0.21499325  0.78322534    -0.08600
C358        C  0.06921063  0.21047588  0.77065626    -0.10200
C359        C  0.05222036  0.19447359  0.52343126    -0.08600
C360        C  0.08550245  0.19175726  0.51540486    -0.10200
C361        C  0.10263264  0.45872734  0.75624393    -0.08600
C362        C  0.13708984  0.45827262  0.76171951    -0.10200
C363        C  0.44060959  0.34063719  0.77727369    -0.08600
C364        C  0.44847374  0.30975835  0.78950615    -0.10200
C365        C  0.12058073  0.44789532  0.51373799    -0.08600
C366        C  0.15405655  0.44824623  0.52186128    -0.10200
C367        C  0.45537998  0.32405545  0.51168232    -0.08600
C368        C  0.45836272  0.29034562  0.51980553    -0.10200
C369        C  0.43885671  0.49733206  0.86067831    -0.11800
C370        C  0.46919417  0.48687758  0.87815278    -0.27000
H371        H  0.41042981  0.50078224  0.87055758     0.17200
H372        H  0.49644909  0.47982872  0.86754790     0.17800
C373        C  0.46557231  0.49081006  0.60984659    -0.11800
C374        C  0.46318225  0.46137682  0.63051359    -0.27000
H375        H  0.46897054  0.52021908  0.61725286     0.17200
H376        H  0.46351550  0.43172710  0.62326778     0.17800
C377        C  0.18639140  0.37785936  0.72726191    -0.08600
C378        C  0.18513605  0.41157538  0.71890465    -0.10200
C379        C  0.27570483  0.50452321  0.71663819    -0.08600
C380        C  0.30952056  0.50547893  0.72398576    -0.10200
C381        C  0.20009408  0.39859301  0.48214769    -0.08600
C382        C  0.20048640  0.36468832  0.49001517    -0.10200
C383        C  0.32609669  0.49108092  0.48273013    -0.08600
C384        C  0.29210352  0.49028099  0.47600499    -0.10200
C385        C  0.47635047  0.15066533  0.78467955    -0.08600
C386        C  0.48466597  0.11998612  0.77447411    -0.10200
C387        C  0.38627973  0.24928725  0.77472618    -0.08600
C388        C  0.35639672  0.25784157  0.76215560    -0.10200
C389        C  0.50053879  0.14802090  0.48430753    -0.08600
C390        C  0.50127070  0.11413899  0.49234125    -0.10200
C391        C  0.37770428  0.24421533  0.48675766    -0.08600
C392        C  0.41128416  0.24282634  0.47932576    -0.10200
N393        N  0.46944088  0.71686784  0.47480262     0.01200
C394        C  0.44481515  0.72876754  0.96753086     0.03800
C395        C  0.44316205  0.72538783  0.42879667    -0.19100
C396        C  0.47127372  0.69738818  0.42734870    -0.19300
C397        C  0.48531106  0.69092956  0.45629037     0.03600
H398        H  0.42194353  0.73209067  0.41129638     0.17400
H399        H  0.47537757  0.67882467  0.40855091     0.17500
N400        N  0.47318415  0.71308501  0.23650018     0.01200
C401        C  0.49002280  0.68598449  0.21956682     0.03800
C402        C  0.47980788  0.69247374  0.18971188    -0.19100
C403        C  0.45281021  0.72172939  0.18886411    -0.19300
C404        C  0.44713283  0.73201669  0.21826011     0.03600
H405        H  0.48532213  0.67334124  0.17150053     0.17400
H406        H  0.43390658  0.72872883  0.16987004     0.17500
N407        N  0.22446017  0.96321302  0.98779565     0.01200
C408        C  0.25270547  0.97981577  0.97037916     0.03800
C409        C  0.24825107  0.96851398  0.94108621    -0.19100
C410        C  0.21915093  0.94122620  0.94125171    -0.19300
C411        C  0.20675749  0.93660866  0.97065577     0.03600
H412        H  0.26866137  0.97356929  0.92293785     0.17400
H413        H  0.21348310  0.92163264  0.92328613     0.17500
N414        N  0.22589018  0.96226883  0.23482422     0.01200
C415        C  0.25410019  0.98004207  0.21817775     0.03800
C416        C  0.25217983  0.96792523  0.18895046    -0.19100
C417        C  0.22492290  0.93884175  0.18855293    -0.19300
C418        C  0.21096938  0.93413510  0.21753404     0.03600
H419        H  0.27349311  0.97365456  0.17154591     0.17400
H420        H  0.22167043  0.91851589  0.17075076     0.17500
Zn421      Zn  0.42991194  0.93893520  0.02813224     1.49700
Zn422      Zn  0.45413321  0.00134551  0.47516334     1.49400
Zn423      Zn  0.51070894  0.48951078  0.01953595     1.49100
Zn424      Zn  0.01133673  0.93026615  0.48275871     1.49500
O425        O  0.47223045  0.96448698  0.00547499    -1.79500
O426        O  0.37711594  0.95630927  0.01276382    -0.70100
O427        O  0.46647790  0.55932727  0.46383331    -0.69900
O428        O  0.49092323  0.97916295  0.07649866    -0.69500
O429        O  0.39604023  0.00237986  0.47957485    -0.70100
O430        O  0.43303472  0.95127606  0.07221220    -0.69700
O431        O  0.50961641  0.54835078  0.01124047    -0.70300
O432        O  0.06702651  0.93192186  0.49805020    -0.69700
O433        O  0.46522746  0.98515202  0.43322425    -0.70500
O434        O  0.06691728  0.46931159  0.00986021    -0.69900
O435        O  0.50941531  0.93863396  0.43884724    -0.70300
O436        O  0.99095019  0.87523889  0.49019571    -0.70200
O437        O  0.43330057  0.88052828  0.02544881    -0.70000
C438        C  0.36629421  0.98303062  0.99409205     0.81800
C439        C  0.48824512  0.56934825  0.99370404     0.82300
C440        C  0.45993291  0.96551352  0.08814508     0.81200
C441        C  0.07612644  0.94777029  0.01326152     0.81600
C442        C  0.48845601  0.96106541  0.42215375     0.82700
C443        C  0.45493513  0.85830510  0.01076095     0.81800
Zn444      Zn  0.50447826  0.49198102  0.27034995     1.49700
Zn445      Zn  0.44802649  0.00013398  0.22573680     1.49400
Zn446      Zn  0.00168953  0.92389773  0.23314303     1.49100
Zn447      Zn  0.42947003  0.93962478  0.27963121     1.49500
O448        O  0.47142419  0.96382078  0.25548668    -1.79500
O449        O  0.50720722  0.55043333  0.26029736    -0.70100
O450        O  0.45953986  0.98462703  0.18353994    -0.69900
O451        O  0.05886026  0.92307282  0.24478818    -0.69500
O452        O  0.46398161  0.55739103  0.22312537    -0.70100
O453        O  0.05776967  0.47362469  0.26744093    -0.69700
O454        O  0.49688590  0.93252014  0.18971462    -0.70300
O455        O  0.43106511  0.88079622  0.27753768    -0.69700
O456        O  0.38996334  0.00182848  0.22888330    -0.70500
O457        O  0.98016522  0.87030584  0.24349009    -0.69900
O458        O  0.37619047  0.95840026  0.26551154    -0.70300
O459        O  0.43641577  0.95210078  0.32343974    -0.70200
O460        O  0.49307931  0.98317815  0.32499495    -0.70000
C461        C  0.48893061  0.57152277  0.24078416     0.81800
C462        C  0.47948072  0.95755115  0.17280327     0.82300
C463        C  0.07876726  0.94449443  0.26173124     0.81200
C464        C  0.45285657  0.85790577  0.26356965     0.81600
C465        C  0.36561536  0.98328879  0.24521434     0.82700
C466        C  0.46376613  0.96778449  0.33807676     0.81800
N467        N  0.97799240  0.71674586  0.01641296     0.01200
C468        C  0.00626163  0.70137839  0.03464261     0.03800
C469        C  0.99881884  0.71073107  0.55414066    -0.19100
C470        C  0.97169982  0.73982446  0.55396535    -0.19300
C471        C  0.46105540  0.74413804  0.03397213     0.03600
H472        H  0.01846175  0.70382791  0.57269267     0.17400
H473        H  0.96693516  0.75891561  0.57233439     0.17500
N474        N  0.97825757  0.71741913  0.26358291     0.01200
C475        C  0.00701891  0.69997071  0.28017544     0.03800
C476        C  0.00388823  0.70990194  0.30984550    -0.19100
C477        C  0.97496577  0.73714645  0.31083770    -0.19300
C478        C  0.46187465  0.74382271  0.28559412     0.03600
H479        H  0.02486471  0.70377678  0.32763139     0.17400
H480        H  0.96996336  0.75565855  0.32953074     0.17500
N481        N  0.21993132  0.47387314  0.51452558     0.01200
C482        C  0.19667194  0.95683075  0.54205439     0.03800
C483        C  0.19589469  0.47008684  0.93973957    -0.19100
C484        C  0.22368549  0.49861632  0.94066807    -0.19300
C485        C  0.23660171  0.49948152  0.97012258     0.03600
H486        H  0.17519701  0.46687981  0.92155242     0.17400
H487        H  0.22802287  0.52102925  0.92329075     0.17500
N488        N  0.21595768  0.46794470  0.25568899     0.01200
C489        C  0.19184851  0.94853624  0.28321296     0.03800
C490        C  0.19350649  0.46215129  0.30279767    -0.19100
C491        C  0.22320343  0.48883206  0.30243153    -0.21700
C492        C  0.23489558  0.49380328  0.27285776     0.03600
H493        H  0.17373944  0.45681680  0.32133109     0.17400
H494        H  0.23007487  0.50772557  0.32061973     0.17500
Zn495      Zn  0.24654240  0.75871896  0.46664523     1.49700
Zn496      Zn  0.19356541  0.68208991  0.47488859     1.49400
Zn497      Zn  0.26467234  0.68838640  0.01715227     1.49100
Zn498      Zn  0.19060631  0.74471971  0.02343106     1.49500
O499        O  0.22342475  0.71733706  0.99518081    -1.79500
O500        O  0.23375563  0.74404862  0.42407934    -0.70100
O501        O  0.21465178  0.62831525  0.48546939    -0.69900
O502        O  0.31828875  0.70770667  0.00488106    -0.69500
O503        O  0.19557765  0.69224972  0.42961108    -0.70100
O504        O  0.30503006  0.75943687  0.46942015    -0.69700
O505        O  0.26180657  0.63079085  0.00848946    -0.70300
O506        O  0.20938083  0.73482727  0.06617473    -0.69700
O507        O  0.13678287  0.68166970  0.48678190    -0.70500
O508        O  0.25991027  0.69540631  0.06214741    -0.69900
O509        O  0.13593075  0.72461309  0.02305953    -0.70300
O510        O  0.18832241  0.80267205  0.01297201    -0.70200
O511        O  0.22728648  0.81295335  0.47319404    -0.70000
C512        C  0.21316024  0.71739810  0.41297929     0.81800
C513        C  0.23953690  0.61164049  0.99148108     0.82300
C514        C  0.33036981  0.73411349  0.98645332     0.81200
C515        C  0.23661535  0.71446068  0.07801941     0.81600
C516        C  0.11805592  0.69888578  0.00869835     0.82700
C517        C  0.20496443  0.82306112  0.99231001     0.81800
Zn518      Zn  0.19479518  0.67484839  0.22490306     1.49700
Zn519      Zn  0.25041520  0.74954804  0.21585346     1.49400
Zn520      Zn  0.19181430  0.74275046  0.27192130     1.49100
Zn521      Zn  0.26794778  0.68881649  0.26990393     1.49500
O522        O  0.22620029  0.71381499  0.24567190    -1.79500
O523        O  0.19660833  0.68474449  0.17943496    -0.70100
O524        O  0.23050258  0.80383033  0.22046839    -0.69900
O525        O  0.13662148  0.72368043  0.26927976    -0.69500
O526        O  0.23844467  0.73357327  0.17353231    -0.70100
O527        O  0.13783605  0.67526089  0.23778823    -0.69700
O528        O  0.19197474  0.80055661  0.26052741    -0.70300
O529        O  0.26197775  0.70023869  0.31412670    -0.69700
O530        O  0.30889769  0.75147307  0.22003637    -0.70500
O531        O  0.20768574  0.73470404  0.31564414    -0.69900
O532        O  0.32134588  0.70798241  0.25697897    -0.70300
O533        O  0.26576369  0.63031553  0.26614463    -0.70200
O534        O  0.21586289  0.62103821  0.23501826    -0.70000
C535        C  0.21603183  0.70825418  0.16260568     0.81800
C536        C  0.20834472  0.81981065  0.23909031     0.82300
C537        C  0.11962664  0.69678880  0.25552461     0.81200
C538        C  0.23624941  0.71778759  0.32879815     0.81600
C539        C  0.33270468  0.73300249  0.23715072     0.82700
C540        C  0.24345211  0.60801149  0.25171058     0.81800
C541        C  0.20914915  0.71583834  0.37999541    -0.11800
C542        C  0.24007090  0.71894001  0.36185006    -0.27000
H543        H  0.18063217  0.71018252  0.37053739     0.17200
H544        H  0.26900269  0.72059296  0.37159556     0.17800
C545        C  0.24168274  0.71343379  0.11098869    -0.11800
C546        C  0.21166830  0.70682633  0.12960479    -0.27000
H547        H  0.27072432  0.71704753  0.12014927     0.17200
H548        H  0.18340234  0.69951156  0.12039021     0.17800
C549        C  0.24580405  0.53228262  0.26189023    -0.08600
C550        C  0.24781697  0.56664848  0.25579874    -0.10200
C551        C  0.24533842  0.53679824  0.98240798    -0.08600
C552        C  0.24548414  0.57062934  0.98854030    -0.10200
C553        C  0.04498783  0.69157615  0.26819814    -0.08600
C554        C  0.07868327  0.69105542  0.26072966    -0.10200
C555        C  0.04448460  0.69222365  0.02379504    -0.08600
C556        C  0.07786193  0.69203470  0.01569820    -0.10200
C557        C  0.11972459  0.93791434  0.26565268    -0.08600
C558        C  0.15383289  0.93843574  0.27202229    -0.10200
C559        C  0.44855417  0.81664476  0.26861093    -0.08600
C560        C  0.45079467  0.78234214  0.27488459    -0.10200
C561        C  0.11731787  0.94263687  0.01771630    -0.08600
C562        C  0.15128846  0.94343534  0.02474050    -0.10200
C563        C  0.45077807  0.81693873  0.01538251    -0.08600
C564        C  0.45179207  0.78271179  0.02221714    -0.10200
C565        C  0.46100214  0.96835882  0.37107336    -0.11800
C566        C  0.49139419  0.95953169  0.38912110    -0.27000
H567        H  0.43291112  0.97424491  0.38078874     0.17200
H568        H  0.51844225  0.95001956  0.37947651     0.17800
C569        C  0.45487269  0.96654652  0.12092097    -0.11800
C570        C  0.48347977  0.95553841  0.13995227    -0.27000
H571        H  0.42686232  0.97491334  0.12955900     0.17200
H572        H  0.51007746  0.94369089  0.13119137     0.17800
C573        C  0.20230242  0.86098507  0.23547382    -0.08600
C574        C  0.20238812  0.89530951  0.22903418    -0.10200
C575        C  0.29162783  0.98914932  0.23071404    -0.08600
C576        C  0.32500317  0.98903245  0.23909054    -0.10200
C577        C  0.19733680  0.89807842  0.98216135    -0.08600
C578        C  0.19752872  0.86391925  0.98896300    -0.10200
C579        C  0.32542108  0.98813630  0.98819260    -0.08600
C580        C  0.29138394  0.98790485  0.98142308    -0.10200
C581        C  0.49727871  0.64673761  0.23082126    -0.08600
C582        C  0.49643921  0.61252297  0.23765009    -0.10200
C583        C  0.40800203  0.73997210  0.22767370    -0.08600
C584        C  0.37369684  0.73932369  0.23308772    -0.10200
C585        C  0.49581746  0.64430583  0.98207783    -0.08600
C586        C  0.49536567  0.61034640  0.98977302    -0.10200
C587        C  0.37164951  0.73908162  0.98245657    -0.08600
C588        C  0.40602647  0.73823021  0.97715554    -0.10200
N589        N  0.47140618  0.71085893  0.98596932     0.01200
C590        C  0.44088920  0.73516306  0.45857905     0.03800
C591        C  0.44971677  0.71677513  0.93849324    -0.19100
C592        C  0.47693398  0.68772203  0.93988694    -0.19300
C593        C  0.48799145  0.68293321  0.96970867     0.03600
H594        H  0.43035623  0.72272497  0.91959020     0.17400
H595        H  0.48213219  0.66762531  0.92226698     0.17500
N596        N  0.46173664  0.72947092  0.73140585     0.01200
C597        C  0.47779430  0.70340173  0.71313922     0.03800
C598        C  0.46524416  0.71066497  0.68388948    -0.19100
C599        C  0.43752684  0.73909017  0.68489678    -0.19300
C600        C  0.43393524  0.74817299  0.71473876     0.03600
H601        H  0.46962145  0.69220777  0.66506963     0.17400
H602        H  0.41696590  0.74610535  0.66698478     0.17500
N603        N  0.23041867  0.96791164  0.49314524     0.01200
C604        C  0.25876584  0.98419226  0.47574443     0.03800
C605        C  0.25352129  0.97410425  0.44624569    -0.19100
C606        C  0.22343063  0.94796719  0.44608247    -0.19300
C607        C  0.21139383  0.94259844  0.47553497     0.03600
H608        H  0.27380013  0.97912866  0.42800349     0.17400
H609        H  0.21673082  0.92933812  0.42768697     0.17500
N610        N  0.21422892  0.97670191  0.73169656     0.01200
C611        C  0.24339331  0.99439269  0.71595262     0.03800
C612        C  0.24169711  0.98357210  0.68637626    -0.19100
C613        C  0.21354144  0.95541860  0.68482777    -0.19300
C614        C  0.19887839  0.94982831  0.71351218     0.03600
H615        H  0.26339378  0.98957961  0.66931952     0.17400
H616        H  0.20999194  0.93607999  0.66639400     0.17500
Zn617      Zn  0.43820994  0.93925543  0.52791499     1.49700
Zn618      Zn  0.44940356  0.00390951  0.97753776     1.49400
Zn619      Zn  0.50805118  0.50423725  0.51772420     1.49100
Zn620      Zn  0.00019997  0.92707667  0.98188162     1.49500
O621        O  0.47909323  0.96638184  0.50496599    -1.79500
O622        O  0.38462619  0.95918799  0.51683713    -0.70100
O623        O  0.46073043  0.55512419  0.97843587    -0.69900
O624        O  0.49272149  0.98973804  0.57578962    -0.69500
O625        O  0.39059419  0.00430452  0.97971213    -0.70100
O626        O  0.44658299  0.94493937  0.57226200    -0.69700
O627        O  0.50962130  0.56003959  0.50125509    -0.70300
O628        O  0.05781765  0.92840310  0.99383269    -0.69700
O629        O  0.46169073  0.99124451  0.93456874    -0.70500
O630        O  0.06376809  0.48234605  0.52003844    -0.69900
O631        O  0.49761901  0.93773201  0.93846073    -0.70300
O632        O  0.98055013  0.87218675  0.99126358    -0.70200
O633        O  0.43857482  0.88214101  0.52126618    -0.70000
C634        C  0.37276909  0.98398919  0.49698275     0.81800
C635        C  0.49097162  0.57711938  0.47979736     0.82300
C636        C  0.46805960  0.96645065  0.58793892     0.81200
C637        C  0.08384408  0.95315594  0.51699808     0.81600
C638        C  0.48050673  0.96416947  0.92263501     0.82700
C639        C  0.46129104  0.86022900  0.50743324     0.81800
Zn640      Zn  0.49056254  0.51363706  0.77124304     1.49700
Zn641      Zn  0.43945970  0.02001140  0.73023299     1.49400
Zn642      Zn  0.98568996  0.93752950  0.72940658     1.49100
Zn643      Zn  0.41815171  0.95274906  0.77869962     1.49500
O644        O  0.46031927  0.97698756  0.75525111    -1.79500
O645        O  0.49264700  0.57068557  0.75750048    -0.70100
O646        O  0.45633631  0.01552321  0.68693496    -0.69900
O647        O  0.04434017  0.93553105  0.73873864    -0.69500
O648        O  0.45467842  0.57254063  0.71668332    -0.70100
O649        O  0.04572880  0.49081865  0.76856741    -0.69700
O650        O  0.47707132  0.95460436  0.68540249    -0.70300
O651        O  0.42080329  0.89439780  0.77548666    -0.69700
O652        O  0.38019544  0.01916301  0.73032615    -0.70500
O653        O  0.96387468  0.88412951  0.73998841    -0.69900
O654        O  0.36538588  0.97155510  0.76349894    -0.70300
O655        O  0.42399675  0.96361082  0.82325472    -0.70200
O656        O  0.48612874  0.98040631  0.82623819    -0.70000
C657        C  0.47723329  0.58901853  0.73503945     0.81800
C658        C  0.46813956  0.98693029  0.67227358     0.82300
C659        C  0.06498426  0.95413871  0.75727045     0.81200
C660        C  0.44064310  0.87221085  0.75934433     0.81600
C661        C  0.35527224  0.99812917  0.74436885     0.82700
C662        C  0.45412816  0.97131077  0.83872105     0.81800
N663        N  0.97686141  0.71969409  0.50694982     0.01200
C664        C  0.00364767  0.70085564  0.52456279     0.03800
C665        C  0.00254554  0.71512198  0.06323058    -0.19100
C666        C  0.97379387  0.74261587  0.06165448    -0.19300
C667        C  0.46014162  0.74478527  0.52486258     0.03600
H668        H  0.02322687  0.71140018  0.08156397     0.17400
H669        H  0.96863930  0.76366888  0.07859740     0.17500
N670        N  0.96741848  0.73275512  0.76369426     0.01200
C671        C  0.99604549  0.71575274  0.78070793     0.03800
C672        C  0.99246344  0.72609428  0.81026498    -0.19100
C673        C  0.96320401  0.75300754  0.81083686    -0.19300
C674        C  0.45242522  0.75829040  0.78132087     0.03600
H675        H  0.01324681  0.72037390  0.82826183     0.17400
H676        H  0.95759897  0.77164545  0.82934768     0.17500
N677        N  0.22052041  0.46950495  0.98645232     0.01200
C678        C  0.18968975  0.95205830  0.03623061     0.03800
C679        C  0.19567419  0.47321419  0.56111729    -0.19100
C680        C  0.22371845  0.50154528  0.55916429    -0.19300
C681        C  0.23641093  0.50320221  0.52972824     0.03600
H682        H  0.17512500  0.46959837  0.57933284     0.17400
H683        H  0.22842922  0.52337431  0.57565631     0.17500
N684        N  0.20382653  0.48327864  0.75486158     0.01200
C685        C  0.17703176  0.96321672  0.77884923     0.03800
C686        C  0.18133303  0.47611715  0.80185995    -0.19100
C687        C  0.21031021  0.50354002  0.80185249    -0.21700
C688        C  0.22201181  0.50928568  0.77235619     0.03600
H689        H  0.16147554  0.47021788  0.82025272     0.17400
H690        H  0.21653330  0.52232649  0.82023976     0.17500
Zn691      Zn  0.24812657  0.75491102  0.96708280     1.49700
Zn692      Zn  0.19007428  0.68198168  0.97270835     1.49400
Zn693      Zn  0.26549781  0.69744470  0.52026288     1.49100
Zn694      Zn  0.18797507  0.74930827  0.52228894     1.49500
O695        O  0.22341425  0.72175557  0.49602443    -1.79500
O696        O  0.23373576  0.74407723  0.92421890    -0.70100
O697        O  0.21185534  0.62764612  0.97653690    -0.69900
O698        O  0.31868227  0.71556090  0.50585496    -0.69500
O699        O  0.18818983  0.69849053  0.92828421    -0.70100
O700        O  0.30701832  0.75500747  0.97062326    -0.69700
O701        O  0.26317738  0.63887262  0.51753642    -0.70300
O702        O  0.20349363  0.74063612  0.56577866    -0.69700
O703        O  0.13467240  0.67973642  0.98857563    -0.70500
O704        O  0.25987611  0.70961551  0.56442592    -0.69900
O705        O  0.13316218  0.72943789  0.51875630    -0.70300
O706        O  0.18775754  0.80733293  0.51256013    -0.70200
O707        O  0.22845077  0.80845955  0.97399201    -0.70000
C708        C  0.20842282  0.72235188  0.91239670     0.81800
C709        C  0.24167699  0.61594699  0.50300829     0.82300
C710        C  0.32938047  0.74024378  0.48552677     0.81200
C711        C  0.23287902  0.72541574  0.57900074     0.81600
C712        C  0.11745715  0.70236684  0.50433744     0.82700
C713        C  0.20479266  0.82781297  0.49217826     0.81800
Zn714      Zn  0.18311469  0.69147029  0.72443626     1.49700
Zn715      Zn  0.23958245  0.76529125  0.71595965     1.49400
Zn716      Zn  0.18026138  0.75998536  0.77111224     1.49100
Zn717      Zn  0.25563020  0.70446565  0.76966789     1.49500
O718        O  0.21448141  0.73009017  0.74543525    -1.79500
O719        O  0.18567478  0.70161014  0.67904511    -0.70100
O720        O  0.21919516  0.81938775  0.71864730    -0.69900
O721        O  0.12548995  0.73968667  0.76960825    -0.69500
O722        O  0.22994153  0.74834421  0.67384979    -0.70100
O723        O  0.12635391  0.69179551  0.73758962    -0.69700
O724        O  0.17909511  0.81724841  0.75773227    -0.70300
O725        O  0.24995971  0.71733164  0.81325713    -0.69700
O726        O  0.29742630  0.76758408  0.72129889    -0.70500
O727        O  0.19717831  0.75417662  0.81483969    -0.69900
O728        O  0.30948655  0.72216043  0.75685180    -0.70300
O729        O  0.25222323  0.64595139  0.76672653    -0.70200
O730        O  0.20362947  0.63736332  0.73430073    -0.70000
C731        C  0.20693982  0.72387474  0.66258779     0.81800
C732        C  0.19593887  0.83579759  0.73615612     0.82300
C733        C  0.10844333  0.71281984  0.75586033     0.81200
C734        C  0.22540528  0.73646555  0.82782952     0.81600
C735        C  0.32101608  0.74800061  0.73774630     0.82700
C736        C  0.23030050  0.62394348  0.75170759     0.81800
C737        C  0.20230106  0.72475410  0.87945554    -0.11800
C738        C  0.23013569  0.73777415  0.86065645    -0.27000
H739        H  0.17540111  0.71346106  0.87031892     0.17200
H740        H  0.25842558  0.74563717  0.86948768     0.17800
C741        C  0.23582012  0.72633091  0.61206419    -0.11800
C742        C  0.20440511  0.72172256  0.62958766    -0.27000
H743        H  0.26434499  0.72932812  0.62226699     0.17200
H744        H  0.17648854  0.71501789  0.61953822     0.17800
C745        C  0.23224383  0.54811614  0.76176408    -0.08600
C746        C  0.23414449  0.58252463  0.75580999    -0.10200
C747        C  0.24555612  0.54078724  0.51593731    -0.08600
C748        C  0.24639015  0.57472195  0.50811515    -0.10200
C749        C  0.03409864  0.70710667  0.76912976    -0.08600
C750        C  0.06772655  0.70665764  0.76156632    -0.10200
C751        C  0.04257407  0.69378705  0.51435428    -0.08600
C752        C  0.07667276  0.69518708  0.50839051    -0.10200
C753        C  0.10628282  0.94830904  0.75965120    -0.08600
C754        C  0.14020639  0.95092974  0.76644900    -0.10200
C755        C  0.43755900  0.83094037  0.76457359    -0.08600
C756        C  0.44073014  0.79686224  0.77127940    -0.10200
C757        C  0.12448978  0.94793975  0.52344019    -0.08600
C758        C  0.15822700  0.94828183  0.53093706    -0.10200
C759        C  0.45494256  0.81910343  0.51001169    -0.08600
C760        C  0.45331766  0.78464223  0.51541850    -0.10200
C761        C  0.45165802  0.97065695  0.87188689    -0.11800
C762        C  0.48280424  0.96340660  0.88956490    -0.27000
H763        H  0.42361497  0.97553083  0.88203322     0.17200
H764        H  0.51006536  0.95505872  0.87962595     0.17800
C765        C  0.46463371  0.96265139  0.62102770    -0.11800
C766        C  0.47191688  0.99187845  0.63923918    -0.27000
H767        H  0.45421731  0.93518851  0.63065718     0.17200
H768        H  0.47893965  0.02041552  0.62964822     0.17800
C769        C  0.18939545  0.87666769  0.73115174    -0.08600
C770        C  0.18968619  0.91080568  0.72414033    -0.10200
C771        C  0.28096061  0.00283978  0.72912765    -0.08600
C772        C  0.31454281  0.00317433  0.73734431    -0.10200
C773        C  0.20078596  0.90381467  0.48581826    -0.08600
C774        C  0.19944505  0.86915764  0.49049933    -0.10200
C775        C  0.33178933  0.98997350  0.49295656    -0.08600
C776        C  0.29767437  0.99083881  0.48668069    -0.10200
C777        C  0.48558346  0.66387696  0.72314485    -0.08600
C778        C  0.48473699  0.62972030  0.72998198    -0.10200
C779        C  0.39559395  0.75495981  0.72622112    -0.08600
C780        C  0.36186304  0.75390436  0.73325540    -0.10200
C781        C  0.49558178  0.65197487  0.46632680    -0.08600
C782        C  0.49667363  0.61789737  0.47345505    -0.10200
C783        C  0.37007859  0.74485303  0.47917174    -0.08600
C784        C  0.40342305  0.74406656  0.47100437    -0.10200
N785        N  0.97802025  0.21586748  0.48804509     0.01200
C786        C  0.94026693  0.23214130  0.02467991     0.03800
C787        C  0.95217255  0.21932218  0.44174504    -0.19100
C788        C  0.97933161  0.19025428  0.44261360    -0.19300
C789        C  0.99299113  0.18696698  0.47186943     0.03600
H790        H  0.93113019  0.22426953  0.42381020     0.17400
H791        H  0.98276601  0.16912889  0.42546610     0.17500
N792        N  0.96577749  0.21037019  0.23836001     0.01200
C793        C  0.98460097  0.18278949  0.22306903     0.03800
C794        C  0.97197028  0.18400825  0.19345396    -0.19100
C795        C  0.94180759  0.20993423  0.19141681    -0.19300
C796        C  0.93709070  0.22409007  0.21976921     0.03600
H797        H  0.97848956  0.16301467  0.17675194     0.17400
H798        H  0.92131291  0.21248281  0.17286996     0.17500
N799        N  0.72940424  0.45825628  0.01871368     0.01200
C800        C  0.75902842  0.47197925  0.03561438     0.03800
C801        C  0.75769464  0.45503383  0.06424292    -0.19100
C802        C  0.72893746  0.42739387  0.06394000    -0.19300
C803        C  0.71359760  0.42817687  0.03511073     0.03600
H804        H  0.77982102  0.45699671  0.08154668     0.17400
H805        H  0.72515301  0.40448668  0.08100840     0.17500
N806        N  0.72089492  0.46449811  0.22420027     0.01200
C807        C  0.74849548  0.48200877  0.20672239     0.03800
C808        C  0.74470724  0.46999705  0.17753162    -0.19100
C809        C  0.71714024  0.44113410  0.17797949    -0.19300
C810        C  0.70483077  0.43649577  0.20739909     0.03600
H811        H  0.76502545  0.47560611  0.15939843     0.17400
H812        H  0.71263127  0.42090387  0.16025997     0.17500
Zn813      Zn  0.94100765  0.42774598  0.01818463     1.49700
Zn814      Zn  0.94879172  0.50511012  0.46530360     1.49400
Zn815      Zn  0.00381506  0.98958346  0.03282995     1.49100
Zn816      Zn  0.50371442  0.43129607  0.47424789     1.49500
O817        O  0.97393307  0.46264012  0.99376737    -1.79500
O818        O  0.88673731  0.44933078  0.01921228    -0.70100
O819        O  0.97342101  0.05713513  0.47824411    -0.69900
O820        O  0.00178611  0.47342457  0.06407215    -0.69500
O821        O  0.89126508  0.50552594  0.47210632    -0.70100
O822        O  0.96011597  0.42423657  0.06138436    -0.69700
O823        O  0.00260187  0.04778708  0.02673935    -0.70300
O824        O  0.56026396  0.43289345  0.48717934    -0.69700
O825        O  0.95777305  0.48720759  0.42324594    -0.70500
O826        O  0.56209613  0.96989418  0.03025739    -0.69900
O827        O  0.00201371  0.44080762  0.42918566    -0.70300
O828        O  0.48404103  0.37761338  0.48674990    -0.70200
O829        O  0.93837036  0.37348889  0.00192967    -0.70000
C830        C  0.86923827  0.47789377  0.00635434     0.81800
C831        C  0.98606966  0.07068254  0.00759677     0.82300
C832        C  0.98199095  0.44600202  0.07662054     0.81200
C833        C  0.57919230  0.44955696  0.99055160     0.81600
C834        C  0.98074112  0.46277172  0.41226626     0.82700
C835        C  0.95612301  0.35840907  0.98027130     0.81800
Zn836      Zn  0.00913922  0.99251001  0.27941052     1.49700
Zn837      Zn  0.94488311  0.50367333  0.21489628     1.49400
Zn838      Zn  0.49670846  0.42524439  0.22140932     1.49100
Zn839      Zn  0.92506603  0.44305098  0.26807679     1.49500
O840        O  0.96768848  0.46641114  0.24414633    -1.79500
O841        O  0.01000986  0.05069068  0.26812247    -0.70100
O842        O  0.96202995  0.49265708  0.17328498    -0.69900
O843        O  0.55451514  0.42498637  0.23299208    -0.69500
O844        O  0.96850836  0.05442840  0.22953631    -0.70100
O845        O  0.56236001  0.97259857  0.27696341    -0.69700
O846        O  0.99300099  0.43627020  0.17649462    -0.70300
O847        O  0.92708135  0.38436699  0.26647445    -0.69700
O848        O  0.88614969  0.50363117  0.21542546    -0.70500
O849        O  0.47549051  0.37129212  0.23304155    -0.69900
O850        O  0.87198392  0.46147182  0.25284781    -0.70300
O851        O  0.93088919  0.45575100  0.31222024    -0.70200
O852        O  0.98782512  0.48608559  0.31458514    -0.70000
C853        C  0.99217067  0.07023937  0.24742627     0.81800
C854        C  0.97982669  0.46536455  0.16102201     0.82300
C855        C  0.57400123  0.44503445  0.25131827     0.81200
C856        C  0.94847747  0.36084556  0.25278101     0.81600
C857        C  0.86153497  0.48537124  0.23178853     0.82700
C858        C  0.95803403  0.47111786  0.32732679     0.81800
N859        N  0.47844954  0.21879067  0.97592583     0.01200
C860        C  0.50831991  0.20260515  0.96112349     0.03800
C861        C  0.51296292  0.22292918  0.56250818    -0.19100
C862        C  0.48498279  0.25121156  0.56173359    -0.19300
C863        C  0.96026537  0.24638560  0.95807459     0.03600
H864        H  0.53474955  0.21896494  0.58001974     0.17400
H865        H  0.48147879  0.27273360  0.57857427     0.17500
N866        N  0.47084179  0.21950492  0.27024954     0.01200
C867        C  0.49818130  0.20512716  0.28973486     0.03800
C868        C  0.49292097  0.22060800  0.31761753    -0.19100
C869        C  0.46471383  0.24851162  0.31406504    -0.19300
C870        C  0.95412400  0.24915454  0.28328658     0.03600
H871        H  0.51266830  0.21796970  0.33664623     0.17400
H872        H  0.45904923  0.27080887  0.32990467     0.17500
N873        N  0.72533471  0.97347180  0.52198025     0.01200
C874        C  0.69008280  0.45812253  0.53127463     0.03800
C875        C  0.69731424  0.95994601  0.06427404    -0.19100
C876        C  0.72525356  0.98843461  0.06341839    -0.19300
C877        C  0.73624422  0.99359468  0.03371574     0.03600
H878        H  0.67799403  0.95387479  0.08298447     0.17400
H879        H  0.73119043  0.00799153  0.08135998     0.17500
N880        N  0.71785627  0.96920325  0.26458002     0.01200
C881        C  0.68718513  0.45179354  0.27285316     0.03800
C882        C  0.69572048  0.95956756  0.31141315    -0.19100
C883        C  0.72179575  0.98974194  0.31163766    -0.21700
C884        C  0.73316614  0.99671827  0.28222152     0.03600
H885        H  0.67620321  0.95183288  0.32967545     0.17400
H886        H  0.72591124  0.00895463  0.33008407     0.17500
Zn887      Zn  0.75508942  0.25589113  0.47170101     1.49700
Zn888      Zn  0.70232060  0.17884325  0.48146185     1.49400
Zn889      Zn  0.76209179  0.18843784  0.02857109     1.49100
Zn890      Zn  0.68227553  0.23453816  0.02755437     1.49500
O891        O  0.72341462  0.21348742  0.00240346    -1.79500
O892        O  0.74403961  0.23856340  0.42970568    -0.70100
O893        O  0.72201056  0.12587890  0.49564872    -0.69900
O894        O  0.81482783  0.20983600  0.02032224    -0.69500
O895        O  0.71014708  0.18396359  0.43602757    -0.70100
O896        O  0.81364684  0.25750835  0.47635910    -0.69700
O897        O  0.76281874  0.13020359  0.02528499    -0.70300
O898        O  0.69007336  0.21894564  0.07210338    -0.69700
O899        O  0.64420938  0.18005110  0.49150074    -0.70500
O900        O  0.75110892  0.19844191  0.07157778    -0.69900
O901        O  0.62906129  0.21763007  0.01268462    -0.70300
O902        O  0.68452314  0.29348424  0.02506317    -0.70200
O903        O  0.73432690  0.31014655  0.47452500    -0.70000
C904        C  0.72684926  0.20939797  0.41902205     0.81800
C905        C  0.74324560  0.10734085  0.00931414     0.82300
C906        C  0.82814366  0.23717834  0.00347157     0.81200
C907        C  0.72110210  0.20820877  0.08578142     0.81600
C908        C  0.61858848  0.19457815  0.99239239     0.82700
C909        C  0.70314528  0.31811702  0.00864590     0.81800
Zn910      Zn  0.68351683  0.17775028  0.23422563     1.49700
Zn911      Zn  0.74173893  0.24881473  0.21978368     1.49400
Zn912      Zn  0.68424986  0.25234093  0.27538616     1.49100
Zn913      Zn  0.75685709  0.19327469  0.27764745     1.49500
O914        O  0.71655558  0.21792297  0.25187010    -1.79500
O915        O  0.68031047  0.18518382  0.18865765    -0.70100
O916        O  0.72520556  0.30471241  0.21992105    -0.69900
O917        O  0.62880206  0.23262185  0.27699900    -0.69500
O918        O  0.72584584  0.22971619  0.17947835    -0.70100
O919        O  0.62867986  0.17951617  0.25020913    -0.69700
O920        O  0.68386047  0.30783854  0.25793469    -0.70300
O921        O  0.74803503  0.20579706  0.32143646    -0.69700
O922        O  0.80024500  0.24684944  0.22292336    -0.70500
O923        O  0.70331159  0.25223457  0.31852616    -0.69900
O924        O  0.81118503  0.21069220  0.26464680    -0.70300
O925        O  0.75512861  0.13486299  0.27494069    -0.70200
O926        O  0.70502387  0.12398923  0.24449837    -0.70000
C927        C  0.70043355  0.20600140  0.17033667     0.81800
C928        C  0.70198331  0.32369274  0.23580071     0.82300
C929        C  0.61144799  0.20338827  0.26657064     0.81200
C930        C  0.72677985  0.23075242  0.33375808     0.81600
C931        C  0.82341579  0.23093989  0.24202890     0.82700
C932        C  0.73313579  0.11180775  0.26102827     0.81800
C933        C  0.72663174  0.20465444  0.38610506    -0.11800
C934        C  0.72903075  0.23520973  0.36656057    -0.27000
H935        H  0.72262711  0.17577324  0.37771370     0.17200
H936        H  0.72920553  0.26438023  0.37485343     0.17800
C937        C  0.72424213  0.20874567  0.11878925    -0.11800
C938        C  0.69439063  0.20288169  0.13759820    -0.27000
H939        H  0.75306777  0.21326466  0.12809400     0.17200
H940        H  0.66600380  0.19501777  0.12900894     0.17800
C941        C  0.74003607  0.03625487  0.27149108    -0.08600
C942        C  0.73910145  0.07064653  0.26528793    -0.10200
C943        C  0.74571045  0.03216486  0.02214308    -0.08600
C944        C  0.74721936  0.06619500  0.01484576    -0.10200
C945        C  0.53725165  0.19689263  0.28039159    -0.08600
C946        C  0.57109553  0.19747949  0.27353308    -0.10200
C947        C  0.54504507  0.19278365  0.97543471    -0.08600
C948        C  0.57802428  0.19118173  0.98485070    -0.10200
C949        C  0.61512876  0.43916802  0.25522378    -0.08600
C950        C  0.64916262  0.44102147  0.26182192    -0.10200
C951        C  0.94407976  0.31980676  0.25948750    -0.08600
C952        C  0.94507260  0.28633099  0.26863164    -0.10200
C953        C  0.62048832  0.44491169  0.98781010    -0.08600
C954        C  0.65456903  0.44518133  0.98164721    -0.10200
C955        C  0.94978540  0.31836279  0.97391356    -0.08600
C956        C  0.95047194  0.28484749  0.96715366    -0.10200
C957        C  0.95447449  0.47185185  0.36043034    -0.11800
C958        C  0.98365646  0.46072119  0.37909315    -0.27000
H959        H  0.92669066  0.47990902  0.36966265     0.17200
H960        H  0.01016909  0.44940839  0.36977081     0.17800
C961        C  0.98316830  0.43945755  0.10976237    -0.11800
C962        C  0.98544616  0.46928819  0.12809332    -0.27000
H963        H  0.97738648  0.41055967  0.11916759     0.17200
H964        H  0.98712112  0.49851274  0.11823374     0.17800
C965        C  0.69657681  0.36423770  0.22818021    -0.08600
C966        C  0.69670919  0.39783859  0.21950194    -0.10200
C967        C  0.78695108  0.49060525  0.21794934    -0.08600
C968        C  0.82077439  0.49061009  0.22536873    -0.10200
C969        C  0.70198456  0.39188695  0.02232930    -0.08600
C970        C  0.69946984  0.35879027  0.01446472    -0.10200
C971        C  0.82925521  0.48395079  0.01399979    -0.08600
C972        C  0.79627203  0.48280285  0.02302404    -0.10200
C973        C  0.99599742  0.14561521  0.23649730    -0.08600
C974        C  0.99787370  0.11154726  0.24377818    -0.10200
C975        C  0.89849170  0.23304620  0.23010514    -0.08600
C976        C  0.86459371  0.23431770  0.23687720    -0.10200
C977        C  0.98910813  0.14562691  0.01715835    -0.08600
C978        C  0.98994039  0.11179453  0.01118032    -0.10200
C979        C  0.86902547  0.24490898  0.00559884    -0.08600
C980        C  0.90298090  0.24369784  0.01236996    -0.10200
N981        N  0.96710248  0.21316007  0.00860697     0.01200
C982        C  0.94998068  0.23288890  0.47051409     0.03800
C983        C  0.94202487  0.21918346  0.05447736    -0.19100
C984        C  0.96753629  0.18866653  0.05600380    -0.19300
C985        C  0.98086836  0.18411182  0.02715811     0.03600
H986        H  0.92149536  0.22574441  0.07187937     0.17400
H987        H  0.97024746  0.16792339  0.07479799     0.17500
N988        N  0.94538711  0.21559113  0.78723398     0.01200
C989        C  0.94985155  0.17772801  0.79625696     0.03800
C990        C  0.91677249  0.16338198  0.80993483    -0.19100
C991        C  0.88998866  0.19224714  0.80790181    -0.19300
C992        C  0.90776512  0.22324138  0.79319336     0.03600
H993        H  0.91068609  0.13338318  0.81615377     0.17400
H994        H  0.85932980  0.18891455  0.81238705     0.17500
N995        N  0.72728056  0.46731713  0.48386111     0.01200
C996        C  0.75631278  0.48351453  0.46715369     0.03800
C997        C  0.75420808  0.47052303  0.43819012    -0.19100
C998        C  0.72582332  0.44252014  0.43810185    -0.19300
C999        C  0.71149174  0.43918792  0.46703650     0.03600
H1000       H  0.77587560  0.47490364  0.42085826     0.17400
H1001       H  0.72202420  0.42173615  0.42068728     0.17500
N1002       N  0.70922498  0.47854992  0.72472132     0.01200
C1003       C  0.73608054  0.49560999  0.70623659     0.03800
C1004       C  0.73016805  0.48383871  0.67719197    -0.19100
C1005       C  0.70182494  0.45573715  0.67858321    -0.19300
C1006       C  0.69133662  0.45112255  0.70844399     0.03600
H1007       H  0.74934376  0.48920805  0.65828315     0.17400
H1008       H  0.69562575  0.43577281  0.66096907     0.17500
Zn1009     Zn  0.93715189  0.44690029  0.52276649     1.49700
Zn1010     Zn  0.94171490  0.50164550  0.97202163     1.49400
Zn1011     Zn  0.01031012  0.99763918  0.53132234     1.49100
Zn1012     Zn  0.49984160  0.43359960  0.96456937     1.49500
O1013       O  0.97541829  0.47197866  0.49558705    -1.79500
O1014       O  0.88223666  0.46378562  0.51091485    -0.70100
O1015       O  0.96471822  0.05829848  0.98645796    -0.69900
O1016       O  0.99268312  0.50648643  0.56234055    -0.69500
O1017       O  0.88604780  0.50069617  0.98731534    -0.70100
O1018       O  0.94691091  0.46113027  0.56618253    -0.69700
O1019       O  0.01040962  0.05542258  0.51954610    -0.70300
O1020       O  0.55728749  0.43272994  0.97201752    -0.69700
O1021       O  0.94321444  0.49598283  0.92640906    -0.70500
O1022       O  0.56692540  0.97737856  0.53133779    -0.69900
O1023       O  0.99281754  0.45557548  0.92279622    -0.70300
O1024       O  0.48101507  0.37837608  0.96473271    -0.70200
O1025       O  0.94080543  0.38833943  0.52157664    -0.70000
C1026       C  0.86910757  0.48736283  0.49054356     0.81800
C1027       C  0.99487862  0.07386512  0.49718648     0.82300
C1028       C  0.96885373  0.48619831  0.57799712     0.81200
C1029       C  0.57868919  0.45489343  0.50465239     0.81600
C1030       C  0.96815037  0.47866752  0.91073377     0.82700
C1031       C  0.96160336  0.36565845  0.50660358     0.81800
Zn1032     Zn  0.99660706  0.99728010  0.78149712     1.49700
Zn1033     Zn  0.93390970  0.51878159  0.71390758     1.49400
Zn1034     Zn  0.48377166  0.44172819  0.72749428     1.49100
Zn1035     Zn  0.91175000  0.46276327  0.76986269     1.49500
O1036       O  0.95506904  0.48381046  0.74558141    -1.79500
O1037       O  0.99707147  0.05545230  0.77873538    -0.70100
O1038       O  0.94847424  0.50076513  0.67277300    -0.69900
O1039       O  0.54188689  0.44584092  0.73611334    -0.69500
O1040       O  0.95543469  0.07050535  0.74163517    -0.70100
O1041       O  0.55192304  0.97794030  0.77463598    -0.69700
O1042       O  0.97451708  0.44261972  0.68195273    -0.70300
O1043       O  0.91533404  0.40415109  0.77440002    -0.69700
O1044       O  0.87482007  0.52001073  0.71459660    -0.70500
O1045       O  0.46693739  0.39021083  0.74656752    -0.69900
O1046       O  0.85955968  0.47790822  0.75183352    -0.70300
O1047       O  0.91464396  0.48116509  0.81245208    -0.70200
O1048       O  0.97399923  0.50647340  0.81479974    -0.70000
C1049       C  0.97868534  0.08029777  0.76242831     0.81800
C1050       C  0.96230233  0.46920437  0.66361646     0.82300
C1051       C  0.56127344  0.46685124  0.75378637     0.81200
C1052       C  0.93887459  0.37985444  0.76393913     0.81600
C1053       C  0.84974008  0.50138351  0.73034655     0.82700
C1054       C  0.94266403  0.49503226  0.82742739     0.81800
N1055       N  0.48513922  0.22400284  0.51679488     0.01200
C1056       C  0.51409463  0.20818750  0.53408666     0.03800
C1057       C  0.50824676  0.21614790  0.93147080    -0.19100
C1058       C  0.48032903  0.24443623  0.92892931    -0.19300
C1059       C  0.97299243  0.25340953  0.53457219     0.03600
H1060       H  0.53081144  0.21171570  0.91513819     0.17400
H1061       H  0.47777471  0.26546630  0.91030998     0.17500
N1062       N  0.47637845  0.24392140  0.79327967     0.01200
C1063       C  0.51199088  0.23399429  0.80415191     0.03800
C1064       C  0.52457979  0.25969690  0.82512364    -0.19100
C1065       C  0.49706829  0.28800500  0.82600611    -0.19300
C1066       C  0.96784549  0.27887532  0.80285759     0.03600
H1067       H  0.55335840  0.26126259  0.83489203     0.17400
H1068       H  0.50060169  0.31545282  0.83664451     0.17500
N1069       N  0.71869176  0.96648174  0.01688529     0.01200
C1070       C  0.69299080  0.45408092  0.97049330     0.03800
C1071       C  0.70332385  0.96659380  0.56914138    -0.19100
C1072       C  0.73118803  0.99516913  0.56864041    -0.19300
C1073       C  0.74254744  0.00059070  0.53904734     0.03600
H1074       H  0.68376414  0.96039780  0.58767957     0.17400
H1075       H  0.73679525  0.01461470  0.58671622     0.17500
N1076       N  0.70592629  0.98198530  0.75510950     0.01200
C1077       C  0.67596955  0.46817939  0.77376930     0.03800
C1078       C  0.68220481  0.97614256  0.80177573    -0.19100
C1079       C  0.70844227  0.00618687  0.80106201    -0.21700
C1080       C  0.72091230  0.01079933  0.77169012     0.03600
H1081       H  0.66217076  0.96976174  0.81997069     0.17400
H1082       H  0.71216854  0.02676477  0.81862872     0.17500
Zn1083     Zn  0.74786987  0.25520029  0.97733809     1.49700
Zn1084     Zn  0.70169329  0.17413324  0.97670621     1.49400
Zn1085     Zn  0.77226639  0.19718955  0.52762422     1.49100
Zn1086     Zn  0.69515105  0.24983547  0.52598096     1.49500
O1087       O  0.73114838  0.22023051  0.50165590    -1.79500
O1088       O  0.73929094  0.24573677  0.93234978    -0.70100
O1089       O  0.71868350  0.11983909  0.98977664    -0.69900
O1090       O  0.82580685  0.21483865  0.51400987    -0.69500
O1091       O  0.71729166  0.18498941  0.93359343    -0.70100
O1092       O  0.80646647  0.25728885  0.98557265    -0.69700
O1093       O  0.77030693  0.13825551  0.52740346    -0.70300
O1094       O  0.70961383  0.24491317  0.57004612    -0.69700
O1095       O  0.64306742  0.17595002  0.97733075    -0.70500
O1096       O  0.76507281  0.21212902  0.57092516    -0.69900
O1097       O  0.64135093  0.22845898  0.52301189    -0.70300
O1098       O  0.69285248  0.30697668  0.51266867    -0.70200
O1099       O  0.72683726  0.30779532  0.98857002    -0.70000
C1100       C  0.72909606  0.21515061  0.91901637     0.81800
C1101       C  0.74869531  0.11446948  0.51383183     0.82300
C1102       C  0.83733557  0.23901687  0.49361132     0.81200
C1103       C  0.73816841  0.22961958  0.58435525     0.81600
C1104       C  0.62524125  0.20131706  0.50901184     0.82700
C1105       C  0.71009811  0.32603042  0.49159019     0.81800
Zn1106     Zn  0.68023717  0.19695097  0.72804460     1.49700
Zn1107     Zn  0.74081529  0.26713616  0.72240245     1.49400
Zn1108     Zn  0.68127162  0.26630874  0.77568128     1.49100
Zn1109     Zn  0.74566709  0.20359600  0.77763834     1.49500
O1110       O  0.71184155  0.23329459  0.75054377    -1.79500
O1111       O  0.68359728  0.21063678  0.68301100    -0.70100
O1112       O  0.71874515  0.32140876  0.72086297    -0.69900
O1113       O  0.62830576  0.24343603  0.77767357    -0.69500
O1114       O  0.73631591  0.24809196  0.68009861    -0.70100
O1115       O  0.62471671  0.19784219  0.74344566    -0.69700
O1116       O  0.67675297  0.32152189  0.75856815    -0.70300
O1117       O  0.73452258  0.21186122  0.82169893    -0.69700
O1118       O  0.79698894  0.27075823  0.73529275    -0.70500
O1119       O  0.70154493  0.26689569  0.81877398    -0.69900
O1120       O  0.79859657  0.22441751  0.77167465    -0.70300
O1121       O  0.74498798  0.14609764  0.77013950    -0.70200
O1122       O  0.69952612  0.14123400  0.73473541    -0.70000
C1123       C  0.70962860  0.22859796  0.66762196     0.81800
C1124       C  0.69380207  0.33862485  0.73648275     0.82300
C1125       C  0.60968311  0.21740287  0.76412651     0.81200
C1126       C  0.71960232  0.24079128  0.83420693     0.81600
C1127       C  0.81490228  0.25093045  0.75567115     0.82700
C1128       C  0.72486572  0.12586606  0.75245310     0.81800
C1129       C  0.73048276  0.21358196  0.88582182    -0.11800
C1130       C  0.72279172  0.24431677  0.86730266    -0.27000
H1131       H  0.73413687  0.18530701  0.87638465     0.17200
H1132       H  0.71607528  0.27199884  0.87675822     0.17800
C1133       C  0.74009837  0.23180092  0.61740778    -0.11800
C1134       C  0.70822392  0.22724315  0.63444666    -0.27000
H1135       H  0.76837745  0.23461100  0.62804298     0.17200
H1136       H  0.68057129  0.22090217  0.62380722     0.17800
C1137       C  0.72892308  0.04961128  0.75963853    -0.08600
C1138       C  0.72924470  0.08422328  0.75407605    -0.10200
C1139       C  0.75190100  0.03936757  0.52766345    -0.08600
C1140       C  0.75310882  0.07345169  0.52031569    -0.10200
C1141       C  0.54036204  0.21531845  0.78624608    -0.08600
C1142       C  0.57045865  0.21078163  0.77331911    -0.10200
C1143       C  0.55104938  0.19685764  0.52197254    -0.08600
C1144       C  0.58441417  0.19512420  0.51395889    -0.10200
C1145       C  0.60255887  0.46126602  0.75724407    -0.08600
C1146       C  0.63690449  0.46094548  0.76307297    -0.10200
C1147       C  0.93813658  0.34030291  0.77528332    -0.08600
C1148       C  0.94648636  0.30942837  0.78721905    -0.10200
C1149       C  0.61918571  0.44830612  0.51071156    -0.08600
C1150       C  0.65268785  0.44844703  0.51876449    -0.10200
C1151       C  0.95902314  0.32447451  0.51308117    -0.08600
C1152       C  0.96187872  0.29083131  0.52143428    -0.10200
C1153       C  0.93942753  0.49549138  0.86051217    -0.11800
C1154       C  0.96998447  0.48517502  0.87780482    -0.27000
H1155       H  0.91115083  0.49919997  0.87057581     0.17200
H1156       H  0.99706250  0.47786721  0.86704437     0.17800
C1157       C  0.96670817  0.49245670  0.61058210    -0.11800
C1158       C  0.96372205  0.46285906  0.63095116    -0.27000
H1159       H  0.97023118  0.52179880  0.61810547     0.17200
H1160       H  0.96389216  0.43328463  0.62352406     0.17800
C1161       C  0.68546114  0.37871655  0.72897688    -0.08600
C1162       C  0.68381838  0.41243173  0.72071110    -0.10200
C1163       C  0.77517372  0.50452062  0.71595873    -0.08600
C1164       C  0.80912960  0.50562176  0.72295196    -0.10200
C1165       C  0.70235985  0.40086898  0.47929908    -0.08600
C1166       C  0.70272171  0.36681545  0.48663971    -0.10200
C1167       C  0.82790232  0.49208304  0.48679781    -0.08600
C1168       C  0.79406099  0.49201897  0.47961882    -0.10200
C1169       C  0.97342958  0.15069691  0.78083161    -0.08600
C1170       C  0.98109012  0.12023755  0.76998586    -0.10200
C1171       C  0.88440293  0.24907191  0.77491559    -0.08600
C1172       C  0.85482990  0.25760916  0.76199310    -0.10200
C1173       C  0.00122943  0.14875513  0.48477744    -0.08600
C1174       C  0.00118898  0.11487111  0.49261885    -0.10200
C1175       C  0.87837317  0.24385573  0.48870855    -0.08600
C1176       C  0.91223695  0.24281338  0.48191435    -0.10200
N1177       N  0.97095569  0.71637938  0.47540149     0.01200
C1178       C  0.94473468  0.72498563  0.96662503     0.03800
C1179       C  0.94536339  0.72338644  0.42902958    -0.19100
C1180       C  0.97444771  0.69632724  0.42817793    -0.19300
C1181       C  0.98808768  0.69069744  0.45732931     0.03600
H1182       H  0.92432068  0.72921197  0.41123468     0.17400
H1183       H  0.97952011  0.67761438  0.40961682     0.17500
N1184       N  0.97065113  0.71276755  0.23239395     0.01200
C1185       C  0.98666251  0.68567364  0.21502276     0.03800
C1186       C  0.97317732  0.69061061  0.18579389    -0.19100
C1187       C  0.94508506  0.71875636  0.18604064    -0.19300
C1188       C  0.94217495  0.73006557  0.21542679     0.03600
H1189       H  0.97742455  0.67091434  0.16774350     0.17400
H1190       H  0.92407077  0.72435457  0.16818064     0.17500
N1191       N  0.72318797  0.96182388  0.98538824     0.01200
C1192       C  0.75060493  0.97886637  0.96749226     0.03800
C1193       C  0.74545640  0.96771649  0.93822813    -0.19100
C1194       C  0.71674502  0.94001065  0.93883970    -0.19300
C1195       C  0.70538634  0.93497644  0.96848614     0.03600
H1196       H  0.76528379  0.97313696  0.91974150     0.17400
H1197       H  0.71083257  0.92043176  0.92090575     0.17500
N1198       N  0.72495027  0.96545441  0.23330438     0.01200
C1199       C  0.75418963  0.98289668  0.21756847     0.03800
C1200       C  0.75160004  0.97348289  0.18771477    -0.19100
C1201       C  0.72248062  0.94638074  0.18579432    -0.19300
C1202       C  0.70830824  0.93986323  0.21457899     0.03600
H1203       H  0.77315019  0.97954335  0.17055147     0.17400
H1204       H  0.71795567  0.92801227  0.16687143     0.17500
Zn1205     Zn  0.92706264  0.93800381  0.02643955     1.49700
Zn1206     Zn  0.95398018  0.00279140  0.47391335     1.49400
Zn1207     Zn  0.01247375  0.48776226  0.01969125     1.49100
Zn1208     Zn  0.51096185  0.92820123  0.48429388     1.49500
O1209       O  0.96938995  0.96448338  0.00418153    -1.79500
O1210       O  0.87421646  0.95589579  0.01125630    -0.70100
O1211       O  0.96833149  0.56008331  0.46591328    -0.69900
O1212       O  0.98759940  0.97734851  0.07547059    -0.69500
O1213       O  0.89586292  0.00367056  0.47803430    -0.70100
O1214       O  0.93050454  0.94796366  0.07113872    -0.69700
O1215       O  0.01249109  0.54671669  0.01174698    -0.70300
O1216       O  0.56716360  0.93004802  0.49863295    -0.69700
O1217       O  0.96597129  0.98767983  0.43181940    -0.70500
O1218       O  0.56571235  0.47179860  0.01016231    -0.69900
O1219       O  0.01130964  0.94227944  0.43751045    -0.70300
O1220       O  0.49032277  0.87348925  0.49268693    -0.70200
O1221       O  0.93068161  0.87988220  0.02209838    -0.70000
C1222       C  0.86366992  0.98247188  0.99233321     0.81800
C1223       C  0.99168557  0.56817166  0.99411229     0.82300
C1224       C  0.95730470  0.96226399  0.08717692     0.81200
C1225       C  0.57825089  0.94484074  0.01436555     0.81600
C1226       C  0.99025104  0.96458071  0.42079531     0.82700
C1227       C  0.95331935  0.85828724  0.00772291     0.81800
Zn1228     Zn  0.00347100  0.49423755  0.27069581     1.49700
Zn1229     Zn  0.94840966  0.00022435  0.22474705     1.49400
Zn1230     Zn  0.50051338  0.92375581  0.23486752     1.49100
Zn1231     Zn  0.93106020  0.93934676  0.27844489     1.49500
O1232       O  0.97262646  0.96384663  0.25407501    -1.79500
O1233       O  0.00596564  0.55230548  0.25919049    -0.70100
O1234       O  0.95924943  0.98478716  0.18244948    -0.69900
O1235       O  0.55779363  0.92408189  0.24568307    -0.69500
O1236       O  0.96349072  0.55739516  0.22135311    -0.70100
O1237       O  0.55832594  0.47104469  0.26656557    -0.69700
O1238       O  0.99868921  0.93410945  0.18805815    -0.70300
O1239       O  0.93250083  0.88053169  0.27577492    -0.69700
O1240       O  0.89030540  0.00180916  0.22847550    -0.70500
O1241       O  0.47988143  0.87034013  0.24635019    -0.69900
O1242       O  0.87724421  0.95812801  0.26505113    -0.70300
O1243       O  0.93907810  0.95173044  0.32219910    -0.70200
O1244       O  0.99479468  0.98454285  0.32330239    -0.70000
C1245       C  0.98813216  0.57237386  0.23879670     0.81800
C1246       C  0.98013742  0.95862747  0.17143884     0.82300
C1247       C  0.57772308  0.94554953  0.26255099     0.81200
C1248       C  0.95349701  0.85774382  0.26102167     0.81600
C1249       C  0.86621914  0.98309889  0.24494378     0.82700
C1250       C  0.96600016  0.96846142  0.33660950     0.81800
N1251       N  0.47760824  0.71668680  0.01717921     0.01200
C1252       C  0.50556637  0.69962531  0.03481147     0.03800
C1253       C  0.50074653  0.70891946  0.55265172    -0.19100
C1254       C  0.47262353  0.73690371  0.55404925    -0.19300
C1255       C  0.96089893  0.74496150  0.03212330     0.03600
H1256       H  0.52141691  0.70184138  0.57046941     0.17400
H1257       H  0.46813352  0.75494980  0.57310295     0.17500
N1258       N  0.47873457  0.71733435  0.26800240     0.01200
C1259       C  0.50690741  0.69997292  0.28522177     0.03800
C1260       C  0.50374457  0.71097258  0.31462321    -0.19100
C1261       C  0.47523674  0.73867297  0.31486946    -0.19300
C1262       C  0.96129624  0.74313686  0.28172783     0.03600
H1263       H  0.52455534  0.70522706  0.33259857     0.17400
H1264       H  0.47031485  0.75790396  0.33312746     0.17500
N1265       N  0.71896467  0.47451438  0.51447970     0.01200
C1266       C  0.69837679  0.95548182  0.53981451     0.03800
C1267       C  0.69661948  0.46924501  0.94142894    -0.19100
C1268       C  0.72502889  0.49722004  0.94209857    -0.19300
C1269       C  0.73794550  0.49829147  0.97153688     0.03600
H1270       H  0.67588770  0.46618442  0.92324800     0.17400
H1271       H  0.72983509  0.51926687  0.92452180     0.17500
N1272       N  0.71443910  0.46997027  0.25537841     0.01200
C1273       C  0.69168871  0.94919384  0.28181894     0.03800
C1274       C  0.69110152  0.46305924  0.30218650    -0.19100
C1275       C  0.71901530  0.49155482  0.30214076    -0.21700
C1276       C  0.73133022  0.49697610  0.27276740     0.03600
H1277       H  0.67112485  0.45666838  0.32041417     0.17400
H1278       H  0.72423124  0.51089991  0.32034561     0.17500
Zn1279     Zn  0.74761382  0.75785536  0.46513381     1.49700
Zn1280     Zn  0.69502729  0.68091579  0.47387802     1.49400
Zn1281     Zn  0.76413788  0.68763483  0.01797310     1.49100
Zn1282     Zn  0.68939786  0.74343494  0.02241715     1.49500
O1283       O  0.72291817  0.71548354  0.99493167    -1.79500
O1284       O  0.73484564  0.74260340  0.42285014    -0.70100
O1285       O  0.71491772  0.62763974  0.48676883    -0.69900
O1286       O  0.81790791  0.70649033  0.00550422    -0.69500
O1287       O  0.70071193  0.68813428  0.42869957    -0.70100
O1288       O  0.80613435  0.75760131  0.46802147    -0.69700
O1289       O  0.76203650  0.62974007  0.01020328    -0.70300
O1290       O  0.70727481  0.73485542  0.06553651    -0.69700
O1291       O  0.63743679  0.68166194  0.48372214    -0.70500
O1292       O  0.75851773  0.69610645  0.06280079    -0.69900
O1293       O  0.63474189  0.72310526  0.02197125    -0.70300
O1294       O  0.68744590  0.80110711  0.01100557    -0.70200
O1295       O  0.72934787  0.81255331  0.47102968    -0.70000
C1296       C  0.71697624  0.71399455  0.41189690     0.81800
C1297       C  0.74027946  0.61009592  0.99314836     0.82300
C1298       C  0.83011346  0.73143676  0.98592519     0.81200
C1299       C  0.73455806  0.71522204  0.07805543     0.81600
C1300       C  0.61719272  0.69664450  0.00817858     0.82700
C1301       C  0.70478480  0.82113945  0.99048786     0.81800
Zn1302     Zn  0.69145279  0.67877730  0.22483229     1.49700
Zn1303     Zn  0.74754751  0.75308302  0.21515783     1.49400
Zn1304     Zn  0.68785227  0.74971191  0.26942072     1.49100
Zn1305     Zn  0.76234281  0.69289906  0.27077195     1.49500
O1306       O  0.72236831  0.71844739  0.24509674    -1.79500
O1307       O  0.69189872  0.68881007  0.17937966    -0.70100
O1308       O  0.72828151  0.80833913  0.21770657    -0.69900
O1309       O  0.63404315  0.72737855  0.26985043    -0.69500
O1310       O  0.73590763  0.73568572  0.17322153    -0.70100
O1311       O  0.63562201  0.67756424  0.23960958    -0.69700
O1312       O  0.68519268  0.80618299  0.25473710    -0.70300
O1313       O  0.75498179  0.70680254  0.31431894    -0.69700
O1314       O  0.80589240  0.75316022  0.22030288    -0.70500
O1315       O  0.70556031  0.74822086  0.31264918    -0.69900
O1316       O  0.81652585  0.71022299  0.25806911    -0.70300
O1317       O  0.75951555  0.63405931  0.26827164    -0.70200
O1318       O  0.71302098  0.62499600  0.23421648    -0.70000
C1319       C  0.71245090  0.71118088  0.16244110     0.81800
C1320       C  0.70368781  0.82484110  0.23414281     0.82300
C1321       C  0.61770846  0.69888616  0.25763774     0.81200
C1322       C  0.73169746  0.72935648  0.32716485     0.81600
C1323       C  0.82888883  0.73427798  0.23786620     0.82700
C1324       C  0.73890996  0.61179550  0.25240361     0.81800
C1325       C  0.71504117  0.71024566  0.37893501    -0.11800
C1326       C  0.73481413  0.73374919  0.35978579    -0.27000
H1327       H  0.69725716  0.68719861  0.37009426     0.17200
H1328       H  0.75297905  0.75684991  0.36800001     0.17800
C1329       C  0.73888808  0.71510058  0.11107455    -0.11800
C1330       C  0.70846610  0.70926434  0.12944270    -0.27000
H1331       H  0.76780180  0.71857399  0.12051692     0.17200
H1332       H  0.68026436  0.70206971  0.12005220     0.17800
C1333       C  0.74148070  0.53579207  0.26193183    -0.08600
C1334       C  0.74325407  0.57032295  0.25628567    -0.10200
C1335       C  0.74690663  0.53558602  0.98371652    -0.08600
C1336       C  0.74694266  0.56925225  0.99022858    -0.10200
C1337       C  0.54470086  0.69094479  0.27356116    -0.08600
C1338       C  0.57781607  0.69113234  0.26492176    -0.10200
C1339       C  0.54360005  0.69023477  0.02353682    -0.08600
C1340       C  0.57692763  0.68978595  0.01522054    -0.10200
C1341       C  0.61887604  0.93953831  0.26566260    -0.08600
C1342       C  0.65323895  0.93981088  0.27115214    -0.10200
C1343       C  0.94873200  0.81641902  0.26558600    -0.08600
C1344       C  0.95049673  0.78200081  0.27159010    -0.10200
C1345       C  0.61921329  0.93857891  0.01856068    -0.08600
C1346       C  0.65332740  0.93915272  0.02492307    -0.10200
C1347       C  0.94959728  0.81682247  0.01184708    -0.08600
C1348       C  0.95103523  0.78272135  0.01904139    -0.10200
C1349       C  0.96315404  0.96948338  0.36959931    -0.11800
C1350       C  0.99405868  0.96379096  0.38779008    -0.27000
H1351       H  0.93454885  0.97265957  0.37927245     0.17200
H1352       H  0.02202433  0.95676858  0.37834787     0.17800
C1353       C  0.95297473  0.96189263  0.12013297    -0.11800
C1354       C  0.98374288  0.95716402  0.13856496    -0.27000
H1355       H  0.92410257  0.96450012  0.12944757     0.17200
H1356       H  0.01202003  0.95086623  0.12934682     0.17800
C1357       C  0.69772024  0.86597343  0.22956431    -0.08600
C1358       C  0.69834468  0.90053222  0.22402437    -0.10200
C1359       C  0.79199595  0.98983348  0.23072348    -0.08600
C1360       C  0.82541294  0.98884617  0.23916154    -0.10200
C1361       C  0.69697687  0.89617244  0.97994276    -0.08600
C1362       C  0.69754795  0.86201154  0.98675658    -0.10200
C1363       C  0.82305305  0.98737850  0.98567983    -0.08600
C1364       C  0.78934096  0.98712287  0.97813494    -0.10200
C1365       C  0.99580006  0.64705651  0.22661717    -0.08600
C1366       C  0.99566129  0.61316992  0.23441141    -0.10200
C1367       C  0.90406017  0.73834789  0.22697923    -0.08600
C1368       C  0.87009221  0.73875836  0.23357015    -0.10200
C1369       C  0.99912922  0.64317313  0.98299917    -0.08600
C1370       C  0.99919329  0.60917292  0.99061712    -0.10200
C1371       C  0.87145398  0.73565960  0.98152713    -0.08600
C1372       C  0.90579812  0.73438647  0.97605658    -0.10200
N1373       N  0.97199710  0.70896755  0.98548985     0.01200
C1374       C  0.94223421  0.73356537  0.45864563     0.03800
C1375       C  0.95014626  0.71193958  0.93795969    -0.19100
C1376       C  0.97877624  0.68430498  0.94003319    -0.19300
C1377       C  0.98997141  0.68116604  0.96992021     0.03600
H1378       H  0.93064161  0.71633864  0.91893360     0.17400
H1379       H  0.98498441  0.66377960  0.92291618     0.17500
N1380       N  0.96117268  0.72872552  0.73224303     0.01200
C1381       C  0.97831356  0.70244037  0.71475099     0.03800
C1382       C  0.96607748  0.70825815  0.68527212    -0.19100
C1383       C  0.93748589  0.73588185  0.68536150    -0.19300
C1384       C  0.93316577  0.74611003  0.71488430     0.03600
H1385       H  0.97130311  0.68918926  0.66696539     0.17400
H1386       H  0.91708195  0.74167289  0.66710998     0.17500
N1387       N  0.73064674  0.96898843  0.49054757     0.01200
C1388       C  0.75851365  0.98633200  0.47328076     0.03800
C1389       C  0.75330606  0.97680146  0.44364413    -0.19100
C1390       C  0.72407173  0.94967353  0.44331463    -0.19300
C1391       C  0.71238749  0.94333381  0.47278391     0.03600
H1392       H  0.77333276  0.98277011  0.42537354     0.17400
H1393       H  0.71785979  0.93122238  0.42471505     0.17500
N1394       N  0.71430870  0.97499805  0.72447492     0.01200
C1395       C  0.74363404  0.99127980  0.70805900     0.03800
C1396       C  0.74174438  0.97859753  0.67898274    -0.19100
C1397       C  0.71312889  0.95078868  0.67851066    -0.19300
C1398       C  0.69844910  0.94718044  0.70733734     0.03600
H1399       H  0.76346233  0.98324265  0.66172863     0.17400
H1400       H  0.70918747  0.93038349  0.66083796     0.17500
Zn1401     Zn  0.93769465  0.93980184  0.52598951     1.49700
Zn1402     Zn  0.94658953  0.00405159  0.97632529     1.49400
Zn1403     Zn  0.01003904  0.50468790  0.51911457     1.49100
Zn1404     Zn  0.50186830  0.92591858  0.98348399     1.49500
O1405       O  0.97862209  0.96749427  0.50352991    -1.79500
O1406       O  0.88397872  0.96040776  0.51519458    -0.70100
O1407       O  0.96416890  0.55447229  0.97852029    -0.69900
O1408       O  0.99249590  0.98842646  0.57452552    -0.69500
O1409       O  0.88808098  0.00369257  0.97809904    -0.70100
O1410       O  0.94676448  0.94331905  0.57059537    -0.69700
O1411       O  0.01309166  0.56000020  0.50218374    -0.70300
O1412       O  0.55928209  0.92579162  0.99516023    -0.69700
O1413       O  0.95890606  0.99221595  0.93314953    -0.70500
O1414       O  0.56236575  0.48284025  0.51737923    -0.69900
O1415       O  0.99557864  0.93923792  0.93671581    -0.70300
O1416       O  0.48146076  0.87152066  0.99332633    -0.70200
O1417       O  0.93843393  0.88303763  0.51815733    -0.70000
C1418       C  0.87237024  0.98536908  0.49531671     0.81800
C1419       C  0.99387955  0.57739698  0.48122139     0.82300
C1420       C  0.96853712  0.96430798  0.58648188     0.81200
C1421       C  0.58455777  0.95121061  0.51735590     0.81600
C1422       C  0.97799353  0.96550839  0.92099996     0.82700
C1423       C  0.96172557  0.86153431  0.50448656     0.81800
Zn1424     Zn  0.99111462  0.51199503  0.77128001     1.49700
Zn1425     Zn  0.93928760  0.01812084  0.72678078     1.49400
Zn1426     Zn  0.48556136  0.93937607  0.72974747     1.49100
Zn1427     Zn  0.91610740  0.95314755  0.77653188     1.49500
O1428       O  0.95926312  0.97617024  0.75334486    -1.79500
O1429       O  0.99366165  0.56923604  0.75847836    -0.70100
O1430       O  0.95901596  0.01260567  0.68464475    -0.69900
O1431       O  0.54444280  0.93781613  0.73708068    -0.69500
O1432       O  0.95472703  0.57283908  0.71822036    -0.70100
O1433       O  0.54524197  0.49291605  0.76886950    -0.69700
O1434       O  0.97934783  0.95142859  0.68453786    -0.70300
O1435       O  0.91801789  0.89457915  0.77390521    -0.69700
O1436       O  0.88030855  0.01622306  0.72422218    -0.70500
O1437       O  0.46508038  0.88533638  0.74008542    -0.69900
O1438       O  0.86384809  0.97202679  0.75968031    -0.70300
O1439       O  0.92151159  0.96457372  0.82129252    -0.70200
O1440       O  0.98328940  0.98263715  0.82440197    -0.70000
C1441       C  0.97785526  0.58846130  0.73664732     0.81800
C1442       C  0.97121509  0.98356060  0.67077490     0.82300
C1443       C  0.56586548  0.95497245  0.75593292     0.81200
C1444       C  0.93829476  0.87175976  0.75860641     0.81600
C1445       C  0.85470071  0.99662677  0.73869087     0.82700
C1446       C  0.95141626  0.97300231  0.83685048     0.81800
N1447       N  0.47634417  0.71919800  0.50631147     0.01200
C1448       C  0.50445071  0.70052594  0.52267070     0.03800
C1449       C  0.50205545  0.71153476  0.06396194    -0.19100
C1450       C  0.47386120  0.73963991  0.06344262    -0.19300
C1451       C  0.96067573  0.74662021  0.52431613     0.03600
H1452       H  0.52256497  0.70614031  0.08220160     0.17400
H1453       H  0.46903780  0.75958081  0.08124119     0.17500
N1454       N  0.46845601  0.73224853  0.76292465     0.01200
C1455       C  0.49663167  0.71377230  0.77945801     0.03800
C1456       C  0.49434306  0.72397679  0.80913331    -0.19100
C1457       C  0.46639026  0.75214974  0.81031101    -0.19300
C1458       C  0.94979703  0.75833923  0.78160674     0.03600
H1459       H  0.51534248  0.71717540  0.82677380     0.17400
H1460       H  0.46205740  0.77078387  0.82903197     0.17500
N1461       N  0.72127712  0.46890639  0.98806070     0.01200
C1462       C  0.69203090  0.94862084  0.03505170     0.03800
C1463       C  0.69159784  0.47184627  0.56003705    -0.19100
C1464       C  0.71949613  0.50033197  0.55992603    -0.19300
C1465       C  0.73424706  0.50311447  0.53111582     0.03600
H1466       H  0.66985577  0.46741404  0.57730526     0.17400
H1467       H  0.72294649  0.52146510  0.57712315     0.17500
N1468       N  0.70443619  0.48390399  0.75611033     0.01200
C1469       C  0.67929208  0.96326934  0.77280001     0.03800
C1470       C  0.68155061  0.47867398  0.80314330    -0.19100
C1471       C  0.71201707  0.50441861  0.80296540    -0.21700
C1472       C  0.72399631  0.50913168  0.77344676     0.03600
H1473       H  0.66141355  0.47405159  0.82153136     0.17400
H1474       H  0.71918315  0.52317464  0.82118033     0.17500
Zn1475     Zn  0.74773992  0.75219071  0.96607334     1.49700
Zn1476     Zn  0.69000164  0.67916120  0.97297558     1.49400
Zn1477     Zn  0.76565076  0.69791649  0.51971275     1.49100
Zn1478     Zn  0.68789837  0.74960348  0.51986861     1.49500
O1479       O  0.72400922  0.72146283  0.49463339    -1.79500
O1480       O  0.73280491  0.74062787  0.92321877    -0.70100
O1481       O  0.71254244  0.62548092  0.97792268    -0.69900
O1482       O  0.81918575  0.71533723  0.50570978    -0.69500
O1483       O  0.68899263  0.69352736  0.92803239    -0.70100
O1484       O  0.80681599  0.75140041  0.96929695    -0.69700
O1485       O  0.76347896  0.63929144  0.51848726    -0.70300
O1486       O  0.70136701  0.74029702  0.56386464    -0.69700
O1487       O  0.63421906  0.67681222  0.98864029    -0.70500
O1488       O  0.75882605  0.71112581  0.56333007    -0.69900
O1489       O  0.63307188  0.73036157  0.51481005    -0.70300
O1490       O  0.68906063  0.80781919  0.50995748    -0.70200
O1491       O  0.72867228  0.80616222  0.97264262    -0.70000
C1492       C  0.70843546  0.71759329  0.91168632     0.81800
C1493       C  0.74177323  0.61587556  0.50466103     0.82300
C1494       C  0.83022578  0.73899477  0.48478312     0.81200
C1495       C  0.73089773  0.72591910  0.57748150     0.81600
C1496       C  0.61763757  0.70307164  0.50046498     0.82700
C1497       C  0.70677576  0.82793588  0.48968656     0.81800
Zn1498     Zn  0.68320086  0.68800497  0.72342249     1.49700
Zn1499     Zn  0.73799361  0.76291898  0.71386166     1.49400
Zn1500     Zn  0.67808331  0.75877257  0.76848419     1.49100
Zn1501     Zn  0.75417873  0.70434311  0.76942675     1.49500
O1502       O  0.71320998  0.72830645  0.74391238    -1.79500
O1503       O  0.68542278  0.69657095  0.67784165    -0.70100
O1504       O  0.71775904  0.81727373  0.71590890    -0.69900
O1505       O  0.62402978  0.73713732  0.76646819    -0.69500
O1506       O  0.72731541  0.74532140  0.67215413    -0.70100
O1507       O  0.62642282  0.68724491  0.73632542    -0.69700
O1508       O  0.67610991  0.81578650  0.75396612    -0.70300
O1509       O  0.74620936  0.71713192  0.81299191    -0.69700
O1510       O  0.79611404  0.76476097  0.71873798    -0.70500
O1511       O  0.69387527  0.75475272  0.81272955    -0.69900
O1512       O  0.80788224  0.72321685  0.75713767    -0.70300
O1513       O  0.75327092  0.64581478  0.76677809    -0.70200
O1514       O  0.70536642  0.63495445  0.73422523    -0.70000
C1515       C  0.70542516  0.71970977  0.66112968     0.81800
C1516       C  0.69373056  0.83401262  0.73260182     0.82300
C1517       C  0.60782785  0.70906690  0.75359581     0.81200
C1518       C  0.72131275  0.73694738  0.82669836     0.81600
C1519       C  0.81958073  0.74709163  0.73660137     0.82700
C1520       C  0.73236309  0.62282149  0.75184696     0.81800
C1521       C  0.70255798  0.71836164  0.87857393    -0.11800
C1522       C  0.72504721  0.73957083  0.85959458    -0.27000
H1523       H  0.68014413  0.69989159  0.86943602     0.17200
H1524       H  0.74881707  0.75668613  0.86823436     0.17800
C1525       C  0.73326889  0.72685494  0.61050482    -0.11800
C1526       C  0.70293193  0.71726738  0.62811116    -0.27000
H1527       H  0.76103308  0.73393357  0.62063777     0.17200
H1528       H  0.67628909  0.70663125  0.61813643     0.17800
C1529       C  0.73552069  0.54742676  0.76268673    -0.08600
C1530       C  0.73750861  0.58169489  0.75641155    -0.10200
C1531       C  0.74459340  0.54098319  0.51856941    -0.08600
C1532       C  0.74612508  0.57486189  0.51077945    -0.10200
C1533       C  0.53391065  0.70367735  0.76732778    -0.08600
C1534       C  0.56727197  0.70251736  0.75930444    -0.10200
C1535       C  0.54288736  0.69439367  0.51098769    -0.08600
C1536       C  0.57674682  0.69605530  0.50422829    -0.10200
C1537       C  0.60720438  0.94926013  0.75664838    -0.08600
C1538       C  0.64155177  0.95148890  0.76195439    -0.10200
C1539       C  0.93446058  0.83059176  0.76414997    -0.08600
C1540       C  0.93757352  0.79657192  0.77110379    -0.10200
C1541       C  0.62551252  0.94600118  0.52291204    -0.08600
C1542       C  0.65963247  0.94648044  0.52941262    -0.10200
C1543       C  0.95599809  0.82032641  0.50714595    -0.08600
C1544       C  0.95447636  0.78606280  0.51343800    -0.10200
C1545       C  0.94895296  0.97237531  0.87009833    -0.11800
C1546       C  0.98012945  0.96504227  0.88782561    -0.27000
H1547       H  0.92089688  0.97711567  0.88025160     0.17200
H1548       H  0.00737733  0.95679141  0.87782010     0.17800
C1549       C  0.96610008  0.95951975  0.61955880    -0.11800
C1550       C  0.97589056  0.98790157  0.63788088    -0.27000
H1551       H  0.95415741  0.93261511  0.62904363     0.17200
H1552       H  0.98449198  0.01604481  0.62837413     0.17800
C1553       C  0.68737989  0.87489330  0.72694036    -0.08600
C1554       C  0.68832874  0.90885404  0.71922242    -0.10200
C1555       C  0.78117566  0.00035807  0.72099545    -0.08600
C1556       C  0.81437953  0.00105962  0.73008723    -0.10200
C1557       C  0.70289653  0.90409807  0.48282906    -0.08600
C1558       C  0.70190327  0.86940578  0.48763701    -0.10200
C1559       C  0.83143780  0.99167324  0.49099839    -0.08600
C1560       C  0.79743402  0.99292359  0.48430924    -0.10200
C1561       C  0.98664647  0.66337878  0.72562234    -0.08600
C1562       C  0.98570475  0.62919912  0.73234602    -0.10200
C1563       C  0.89451108  0.75321968  0.72573471    -0.08600
C1564       C  0.86055821  0.75271709  0.73225393    -0.10200
C1565       C  0.99893311  0.65208416  0.46768419    -0.08600
C1566       C  0.00006499  0.61803709  0.47480816    -0.10200
C1567       C  0.87101462  0.74312930  0.47858255    -0.08600
C1568       C  0.90444261  0.74222404  0.47062263    -0.10200
loop_ 
_geom_bond_atom_site_label_1 
_geom_bond_atom_site_label_2 
_geom_bond_distance 
_geom_bond_site_symmetry_2 
_ccdc_geom_bond_type 
N1            C5   1.360       .  A
N1          C198   1.358       .  A
N1         N1055   1.423       .  S
C2          N197   1.360       .  A
C2          C196   1.452       .  S
C2          C199   1.381       .  A
C3            C4   1.376       .  A
C3          C198   1.381       .  A
C3            H6   1.083       .  S
C4            C5   1.380       .  A
C4            H7   1.083       .  S
C5          C389   1.452       .  S
N8           C12   1.358       .  A
N8            C9   1.360       .  A
N8          N866   1.422       .  S
C9          C189   1.449       .  S
C9           C10   1.382       .  A
C10          C11   1.376       .  A
C10          H13   1.083       .  S
C11          C12   1.379       .  A
C11          H14   1.083       .  S
C12         C191   1.448       .  S
N15          C19   1.362       .  A
N15          C16   1.357       .  A
N15         N677   1.423   1_554  S
C16         C188   1.447       .  S
C16          C17   1.380       .  A
C17          C18   1.377       .  A
C17          H20   1.083       .  S
C18          C19   1.381       .  A
C18          H21   1.083       .  S
C19         C185   1.454       .  S
N22          C26   1.358       .  A
N22          C23   1.360       .  A
N22         N488   1.424       .  S
C23         C183   1.448       .  S
C23          C24   1.381       .  A
C24          C25   1.376       .  A
C24          H27   1.083       .  S
C25          C26   1.380       .  A
C25          H28   1.083       .  S
C26         C182   1.447       .  S
Zn29         O33   1.960   1_554  S
Zn29         O34   2.027       .  S
Zn29         O38   2.018       .  S
Zn29         O45   2.043       .  S
Zn30        O229   1.961       .  S
Zn30         O37   2.011       .  S
Zn30         O41   2.012       .  S
Zn30        O427   2.017       .  S
Zn31        O425   1.961       .  S
Zn31         O39   2.024   1_565  S
Zn31        O428   2.012       .  S
Zn31        O826   2.010       .  S
Zn32       O1013   1.975   1_455  S
Zn32         O40   2.041       .  S
Zn32         O44   2.040   1_455  S
Zn32        O827   2.052       .  S
O33        Zn226   1.971       .  S
O33        Zn423   1.974   1_556  S
O33       Zn1012   1.944       .  S
O34          C46   1.274       .  A
O35        Zn422   2.013       .  S
O35         C243   1.272       .  A
O36        Zn423   2.044       .  S
O36          C48   1.279       .  A
O37         C242   1.271       .  A
O38          C48   1.273       .  A
O39          C47   1.273       .  A
O40         C245   1.274       .  A
O41          C50   1.273       .  A
O42        Zn815   2.011       .  S
O42         C441   1.271       .  A
O43        Zn816   2.042       .  S
O43          C50   1.275       .  A
O44        C1031   1.275       .  A
O45          C51   1.274   1_554  A
C46         C187   1.441       .  S
C46         O233   1.274   1_554  A
C47         C194   1.442       .  S
C47         O231   1.275   1_554  A
C48         C177   1.478       .  S
C49         C169   1.437       .  S
C49         O236   1.269       .  A
C49         O434   1.275   1_556  A
C50         C174   1.478       .  S
C51         C171   1.441       .  S
C51        O1024   1.272       .  A
Zn52        O448   1.970       .  S
Zn52         O57   2.053   1_565  S
Zn52        O845   2.022       .  S
Zn52        O460   2.023       .  S
Zn53         O56   1.955       .  S
Zn53         O58   1.995       .  S
Zn53         O64   2.030       .  S
Zn53        O452   2.001       .  S
Zn54        O840   1.988       .  S
Zn54         O59   2.062   1_655  S
Zn54         O65   2.049       .  S
Zn54        O846   2.066       .  S
Zn55         O56   1.966       .  S
Zn55         O63   2.019       .  S
Zn55         O66   2.033       .  S
Zn55         O67   2.023       .  S
O56        Zn444   1.968       .  S
O56        Zn838   1.986       .  S
O57          C69   1.275       .  A
O58          C70   1.270       .  A
O59          C71   1.277       .  A
O60        Zn445   2.012       .  S
O60          C69   1.272       .  A
O61        Zn836   2.019       .  S
O61         C463   1.272       .  A
O62        Zn838   2.056       .  S
O62          C70   1.279       .  A
O63          C72   1.272       .  A
O64          C73   1.273       .  A
O65         C856   1.277       .  A
O66          C73   1.274       .  A
O67          C74   1.274       .  A
O68        Zn444   2.028       .  S
O68          C74   1.275       .  A
C69         C190   1.443       .  S
C70         C178   1.474       .  S
C71         C165   1.447       .  S
C71         O453   1.272       .  A
C72         C167   1.443       .  S
C72         O849   1.277       .  A
C73         C184   1.443       .  S
C74         C173   1.473       .  S
N75          C76   1.359   1_655  A
N75         C863   1.360       .  A
N75         N981   1.423   1_556  S
C76         C163   1.450       .  S
C76         C273   1.380       .  A
C77          C78   1.376   1_455  A
C77         C272   1.381       .  A
C77          H80   1.083       .  S
C78        C1059   1.381       .  A
C78          H81   1.083       .  S
C79         N859   1.359       .  A
C79         C172   1.448       .  S
C79        C1058   1.381       .  A
N82          C83   1.359       .  A
N82         C870   1.360       .  A
N82         N792   1.423       .  S
C83         C161   1.447   1_655  S
C83          C84   1.381       .  A
C84          C85   1.376       .  A
C84          H87   1.083   1_655  S
C85         C870   1.380       .  A
C85          H88   1.083       .  S
C86         N866   1.358       .  A
C86         C168   1.450       .  S
C86         C869   1.380       .  A
N89         C289   1.361   1_565  A
N89         C482   1.359       .  A
N89         N603   1.425       .  S
C90         N481   1.358       .  A
C90         C366   1.445       .  S
C90         C679   1.380       .  A
C91          C92   1.376       .  A
C91         C678   1.380       .  A
C91          H94   1.083       .  S
C92          C93   1.381       .  A
C92          H95   1.083   1_565  S
C93         N285   1.358       .  A
C93         C159   1.445   1_565  S
N96         C100   1.360       .  A
N96         C489   1.358       .  A
N96         N414   1.423       .  S
C97         N488   1.361       .  A
C97         C166   1.453       .  S
C97         C490   1.380       .  A
C98          C99   1.376       .  A
C98         C489   1.381       .  A
C98         H101   1.083       .  S
C99         C100   1.379       .  A
C99         H102   1.083   1_565  S
C100        C157   1.449   1_565  S
Zn103       O303   1.960       .  S
Zn103       O108   2.011       .  S
Zn103       O112   2.025       .  S
Zn103       O119   2.014       .  S
Zn104       O303   1.977       .  S
Zn104       O109   2.027       .  S
Zn104       O111   2.037       .  S
Zn104       O115   2.061       .  S
Zn105       O107   1.946       .  S
Zn105       O110   1.996       .  S
Zn105       O113   2.016       .  S
Zn105       O116   1.992       .  S
Zn106       O107   1.974       .  S
Zn106       O114   2.052       .  S
Zn106       O117   2.045       .  S
Zn106       O118   2.043       .  S
O107       Zn299   1.977   1_554  S
O107       Zn300   1.956   1_554  S
O108        C120   1.274       .  A
O109        C317   1.273       .  A
O110        C122   1.269       .  A
O111        C120   1.276       .  A
O112        C318   1.272       .  A
O113        C121   1.271       .  A
O114        C123   1.277       .  A
O115        C320   1.277       .  A
O116        C123   1.270       .  A
O117        C124   1.276   1_554  A
O118        C125   1.276       .  A
O119        C321   1.272       .  A
C120        C149   1.476       .  S
C121        C160   1.440       .  S
C121        O305   1.274   1_554  A
C122        C195   1.444       .  S
C122        O308   1.277   1_554  A
C123        C153   1.470       .  S
C124        C164   1.444       .  S
C124        O311   1.273       .  A
C125        C186   1.448       .  S
C125        O315   1.277   1_554  A
Zn126       O130   1.974       .  S
Zn126       O131   2.033       .  S
Zn126       O135   2.032       .  S
Zn126       O142   2.035       .  S
Zn127       O130   1.953       .  S
Zn127       O132   2.014       .  S
Zn127       O134   2.007       .  S
Zn127       O138   2.016       .  S
Zn128       O130   1.965       .  S
Zn128       O133   2.023       .  S
Zn128       O136   2.035       .  S
Zn128       O139   2.018       .  S
Zn129       O130   1.970       .  S
Zn129       O137   2.037       .  S
Zn129       O140   2.046       .  S
Zn129       O141   2.031       .  S
O131        C143   1.273       .  A
O132        C144   1.271       .  A
O133        C145   1.273       .  A
O134        C143   1.274       .  A
O135        C145   1.273       .  A
O136        C144   1.273       .  A
O137        C146   1.276       .  A
O138        C147   1.271       .  A
O139        C146   1.273       .  A
O140        C147   1.276       .  A
O141        C148   1.274       .  A
O142        C148   1.275       .  A
C143        C154   1.478       .  S
C144        C181   1.440       .  S
C145        C162   1.441       .  S
C146        C150   1.473       .  S
C147        C192   1.442       .  S
C148        C158   1.443       .  S
C149        C150   1.343       .  D
C149        H151   1.087       .  S
C150        H152   1.087       .  S
C153        C154   1.341       .  D
C153        H155   1.087       .  S
C154        H156   1.086       .  S
C157        C158   1.211       .  T
C159        C160   1.208       .  T
C161        C162   1.209       .  T
C163        C164   1.211       .  T
C165        C166   1.213       .  T
C167        C168   1.210       .  T
C169        C170   1.207       .  T
C170        C286   1.443       .  S
C171        C172   1.210       .  T
C173        C174   1.345       .  D
C173        H175   1.087       .  S
C174        H176   1.087       .  S
C177        C178   1.339       .  D
C177        H179   1.087       .  S
C178        H180   1.087       .  S
C181        C182   1.209       .  T
C183        C184   1.210       .  T
C185        C186   1.213       .  T
C187        C188   1.209       .  T
C189        C190   1.210       .  T
C191        C192   1.210       .  T
C193        C201   1.449       .  S
C193        C194   1.210       .  T
C195        C196   1.212       .  T
N197        C201   1.359       .  A
N197        N859   1.423   1_554  S
C198        C392   1.446       .  S
C199        C200   1.376       .  A
C199        H202   1.083       .  S
C200        C201   1.380       .  A
C200        H203   1.083       .  S
N204        C208   1.357       .  A
N204        C205   1.365       .  A
N204       N1062   1.425       .  S
C205        C385   1.438       .  S
C205        C206   1.378       .  A
C206        C207   1.362       .  A
C206        H209   1.083       .  S
C207        C208   1.378       .  A
C207        H210   1.083       .  S
C208        C387   1.433       .  S
N211        C215   1.360       .  A
N211        C212   1.357       .  A
N211        N481   1.423       .  S
C212        C384   1.446       .  S
C212        C213   1.380       .  A
C213        C214   1.376       .  A
C213        H216   1.083       .  S
C214        C215   1.380       .  A
C214        H217   1.083       .  S
C215        C381   1.450       .  S
N218        C222   1.359       .  A
N218        C219   1.360       .  A
N218        N684   1.424       .  S
C219        C379   1.448       .  S
C219        C220   1.381       .  A
C220        C221   1.376       .  A
C220        H223   1.083       .  S
C221        C222   1.381       .  A
C221        H224   1.083       .  S
C222        C378   1.449       .  S
Zn225       O229   1.975       .  S
Zn225       O230   2.048       .  S
Zn225       O234   2.048       .  S
Zn225       O241   2.036       .  S
Zn226       O623   2.009       .  S
Zn226       O233   2.037       .  S
Zn226       O237   2.041       .  S
Zn227       O621   1.975       .  S
Zn227       O624   2.048       .  S
Zn227       O235   2.057   1_565  S
Zn227      O1022   2.036       .  S
Zn228       O817   1.945   1_455  S
Zn228       O236   2.000       .  S
Zn228      O1023   1.998   1_455  S
Zn228       O240   2.013   1_455  S
O229       Zn619   1.968       .  S
O229       Zn816   1.978       .  S
O230        C242   1.277       .  A
O231       Zn618   2.041       .  S
O232       Zn619   2.027       .  S
O232        C244   1.274       .  A
O234        C244   1.276       .  A
O235        C243   1.276       .  A
O237        C246   1.276       .  A
O238      Zn1011   2.021       .  S
O238        C637   1.273       .  A
O239      Zn1012   2.000       .  S
O239        C246   1.271       .  A
O240        C835   1.271       .  A
O241        C247   1.274       .  A
C242        C383   1.440       .  S
C243        C390   1.445       .  S
C244        C373   1.480       .  S
C245        C365   1.438       .  S
C245        O630   1.272       .  A
C246        C370   1.473       .  S
C247        C367   1.444       .  S
C247        O828   1.274       .  A
Zn248       O644   1.952       .  S
Zn248       O253   2.013   1_565  S
Zn248      O1041   1.995       .  S
Zn248       O656   2.008       .  S
Zn249       O252   1.959       .  S
Zn249       O254   2.026       .  S
Zn249       O648   2.014       .  S
Zn249       O260   2.036       .  S
Zn250      O1036   1.967       .  S
Zn250       O255   2.044   1_655  S
Zn250      O1042   2.030       .  S
Zn250       O261   2.019       .  S
Zn251       O252   1.971       .  S
Zn251       O259   2.036       .  S
Zn251       O262   2.025       .  S
Zn251       O263   2.018       .  S
O252       Zn640   1.967       .  S
O252      Zn1034   1.970       .  S
O253        C265   1.271       .  A
O254        C266   1.275       .  A
O255        C267   1.274       .  A
O256       Zn641   2.028       .  S
O256        C265   1.274       .  A
O257      Zn1032   1.993   1_455  S
O257        C659   1.269       .  A
O258      Zn1034   2.046       .  S
O258        C266   1.277       .  A
O259        C268   1.274       .  A
O260        C269   1.274       .  A
O261       C1052   1.273       .  A
O262        C269   1.274       .  A
O263        C270   1.272       .  A
O264       Zn640   2.033       .  S
O264        C270   1.277       .  A
C265        C386   1.436       .  S
C266        C374   1.483       .  S
C267        C361   1.446       .  S
C267        O649   1.274       .  A
C268        C363   1.442       .  S
C268       O1045   1.274       .  A
C269        C380   1.442       .  S
C270        C369   1.475       .  S
N271       C1059   1.361       .  A
N271        C272   1.360   1_655  A
N271        N785   1.423       .  S
C272        C359   1.449       .  S
C273        C274   1.376   1_455  A
C273        H276   1.083       .  S
C274        C863   1.381       .  A
C274        H277   1.083       .  S
C275       N1055   1.362       .  A
C275        C368   1.450       .  S
C275        C862   1.381       .  A
N278       C1066   1.364       .  A
N278        C279   1.358   1_655  A
N278        N988   1.425       .  S
C279        C357   1.436       .  S
C279        C280   1.380       .  A
C280        C281   1.367   1_455  A
C280        H283   1.083       .  S
C281       C1066   1.378       .  A
C281        H284   1.083   1_655  S
C282       N1062   1.364       .  A
C282        C364   1.445       .  S
C282       C1065   1.379       .  A
N285        C678   1.360       .  A
N285        N407   1.423   1_554  S
C286        N677   1.356       .  A
C286        C483   1.380       .  A
C287        C482   1.381       .  A
C287        C288   1.375       .  A
C287        H290   1.083       .  S
C288        C289   1.380   1_565  A
C288        H291   1.083   1_565  S
C289        C355   1.449       .  S
N292        C296   1.359   1_565  A
N292        C685   1.361       .  A
N292        N610   1.423       .  S
C293        N684   1.360       .  A
C293        C362   1.451       .  S
C293        C686   1.380       .  A
C294        C685   1.381       .  A
C294        C295   1.376   1_565  A
C294        H297   1.083       .  S
C295        C296   1.380       .  A
C295        H298   1.083       .  S
C296        C353   1.451       .  S
Zn299       O304   2.053       .  S
Zn299       O308   2.067       .  S
Zn299       O315   2.045       .  S
Zn300       O305   2.037       .  S
Zn300       O307   2.018       .  S
Zn300       O311   2.029       .  S
Zn301       O303   1.972       .  S
Zn301       O306   2.030       .  S
Zn301       O309   2.038       .  S
Zn301       O312   2.027       .  S
Zn302       O303   1.963       .  S
Zn302       O310   2.012       .  S
Zn302       O313   1.998       .  S
Zn302       O314   2.047       .  S
O304        C316   1.279       .  A
O306        C318   1.274       .  A
O307        C316   1.274       .  A
O309        C317   1.274       .  A
O310        C319   1.274       .  A
O312        C319   1.274       .  A
O313        C320   1.270       .  A
O314        C321   1.274       .  A
C316        C345   1.478       .  S
C317        C356   1.443       .  S
C318        C391   1.440       .  S
C319        C349   1.472       .  S
C320        C360   1.441       .  S
C321        C382   1.443       .  S
Zn322       O326   1.965       .  S
Zn322       O327   2.036       .  S
Zn322       O331   2.039       .  S
Zn322       O338   2.048       .  S
Zn323       O326   1.963       .  S
Zn323       O328   2.026       .  S
Zn323       O330   2.016       .  S
Zn323       O334   2.029       .  S
Zn324       O326   1.950       .  S
Zn324       O329   1.997       .  S
Zn324       O332   2.038       .  S
Zn324       O335   2.037       .  S
Zn325       O326   1.940       .  S
Zn325       O333   2.020       .  S
Zn325       O336   1.986       .  S
Zn325       O337   2.024       .  S
O327        C339   1.277       .  A
O328        C340   1.273       .  A
O329        C341   1.272       .  A
O330        C339   1.275       .  A
O331        C341   1.275       .  A
O332        C340   1.273       .  A
O333        C342   1.274       .  A
O334        C343   1.272       .  A
O335        C342   1.274       .  A
O336        C343   1.271       .  A
O337        C344   1.272       .  A
O338        C344   1.275       .  A
C339        C350   1.474       .  S
C340        C377   1.444       .  S
C341        C358   1.433       .  S
C342        C346   1.482       .  S
C343        C388   1.428       .  S
C344        C354   1.445       .  S
C345        C346   1.345       .  D
C345        H347   1.087       .  S
C346        H348   1.086       .  S
C349        C350   1.344       .  D
C349        H351   1.087       .  S
C350        H352   1.087       .  S
C353        C354   1.212       .  T
C355        C356   1.210       .  T
C357        C358   1.204       .  T
C359        C360   1.210       .  T
C361        C362   1.212       .  T
C363        C364   1.210       .  T
C365        C366   1.208       .  T
C367        C368   1.211       .  T
C369        C370   1.341       .  D
C369        H371   1.086       .  S
C370        H372   1.087       .  S
C373        C374   1.347       .  D
C373        H375   1.087       .  S
C374        H376   1.087       .  S
C377        C378   1.211       .  T
C379        C380   1.210       .  T
C381        C382   1.210       .  T
C383        C384   1.209       .  T
C385        C386   1.206       .  T
C387        C388   1.201       .  T
C389        C390   1.212       .  T
C391        C392   1.209       .  T
N393        C397   1.359       .  A
N393        C590   1.360       .  A
N393       N1447   1.423       .  S
C394        N589   1.360       .  A
C394        C588   1.450       .  S
C394        C591   1.381       .  A
C395        C590   1.381       .  A
C395        C396   1.376       .  A
C395        H398   1.083       .  S
C396        C397   1.381       .  A
C396        H399   1.083       .  S
C397        C781   1.447       .  S
N400        C404   1.358       .  A
N400        C401   1.359       .  A
N400       N1258   1.424       .  S
C401        C581   1.450       .  S
C401        C402   1.380       .  A
C402        C403   1.377       .  A
C402        H405   1.083       .  S
C403        C404   1.382       .  A
C403        H406   1.083       .  S
C404        C583   1.447       .  S
N407        C411   1.357       .  A
N407        C408   1.360       .  A
C408        C580   1.449       .  S
C408        C409   1.380       .  A
C409        C410   1.376       .  A
C409        H412   1.083       .  S
C410        C411   1.380       .  A
C410        H413   1.083       .  S
C411        C577   1.445       .  S
N414        C418   1.360       .  A
N414        C415   1.358       .  A
C415        C575   1.445       .  S
C415        C416   1.380       .  A
C416        C417   1.375       .  A
C416        H419   1.083       .  S
C417        C418   1.381       .  A
C417        H420   1.083       .  S
C418        C574   1.448       .  S
Zn421       O425   1.967       .  S
Zn421       O426   2.026       .  S
Zn421       O430   2.022       .  S
Zn421       O437   2.032       .  S
Zn422       O621   1.955   1_545  S
Zn422       O429   2.016       .  S
Zn422       O433   2.005   1_545  S
Zn423       O431   2.054       .  S
Zn423      O1218   2.047       .  S
Zn424      O1405   1.974   1_455  S
Zn424       O432   2.035       .  S
Zn424      O1219   2.036       .  S
Zn424       O436   2.042   1_455  S
O425       Zn618   1.970   1_564  S
O425      Zn1404   1.975   1_554  S
O426        C438   1.273   1_554  A
O427        C635   1.272       .  A
O428        C440   1.273       .  A
O429        C634   1.271   1_545  A
O430        C440   1.272       .  A
O431        C439   1.276   1_554  A
O432        C637   1.274       .  A
O433        C442   1.273       .  A
O434      Zn1207   2.042       .  S
O435      Zn1208   2.037       .  S
O435        C442   1.275       .  A
O436       C1423   1.276       .  A
O437        C443   1.274       .  A
C438        C579   1.443       .  S
C438        O625   1.273   1_565  A
C439        C586   1.442       .  S
C439        O623   1.271       .  A
C440        C569   1.469       .  S
C441        C561   1.444       .  S
C441        O628   1.275   1_554  A
C442        C566   1.474       .  S
C443        C563   1.444       .  S
C443       O1416   1.275   1_554  A
Zn444       O449   2.055       .  S
Zn444      O1237   2.007       .  S
Zn445       O448   1.959   1_545  S
Zn445       O450   2.012   1_545  S
Zn445       O456   2.011       .  S
Zn446      O1232   1.975   1_455  S
Zn446       O451   2.036       .  S
Zn446      O1238   2.022   1_455  S
Zn446       O457   2.032   1_455  S
Zn447       O448   1.973       .  S
Zn447       O455   2.041       .  S
Zn447       O458   2.038       .  S
Zn447       O459   2.021       .  S
O448      Zn1230   1.971       .  S
O449        C461   1.275       .  A
O450        C462   1.273       .  A
O451        C463   1.272       .  A
O452        C461   1.270       .  A
O453      Zn1228   2.015       .  S
O454      Zn1230   2.019       .  S
O454        C462   1.273       .  A
O455        C464   1.275       .  A
O456        C465   1.270   1_545  A
O457       C1248   1.274       .  A
O458        C465   1.274       .  A
O459        C466   1.274       .  A
O460        C466   1.275       .  A
C461        C582   1.442       .  S
C462        C570   1.471       .  S
C463        C557   1.440       .  S
C464        C559   1.443       .  S
C464       O1241   1.273       .  A
C465        C576   1.439       .  S
C466        C565   1.470       .  S
N467       C1255   1.360       .  A
N467        C468   1.359   1_655  A
N467       N1373   1.423   1_554  S
C468        C555   1.448       .  S
C468        C665   1.380       .  A
C469        C664   1.381   1_655  A
C469        C470   1.376       .  A
C469        H472   1.083   1_655  S
C470       C1451   1.380       .  A
C470        H473   1.083       .  S
C471       N1251   1.359       .  A
C471        C564   1.449       .  S
C471       C1450   1.382       .  A
N474       C1262   1.360       .  A
N474        C475   1.360   1_655  A
N474       N1184   1.423       .  S
C475        C553   1.452       .  S
C475        C476   1.380       .  A
C476        C477   1.377   1_455  A
C476        H479   1.083       .  S
C477       C1262   1.381       .  A
C477        H480   1.083       .  S
C478       N1258   1.361       .  A
C478        C560   1.448       .  S
C478       C1261   1.381       .  A
N481        C681   1.361       .  A
C482        C758   1.446       .  S
C483        C484   1.375       .  A
C483        H486   1.083       .  S
C484        C485   1.380       .  A
C484        H487   1.083       .  S
C485        N677   1.361       .  A
C485        C551   1.450       .  S
N488        C492   1.360       .  A
C489        C558   1.446       .  S
C490        C491   1.376       .  A
C490        H493   1.083       .  S
C491        C492   1.381       .  A
C491        H494   1.083       .  S
C492        C549   1.449       .  S
Zn495       O695   1.963       .  S
Zn495       O500   2.021       .  S
Zn495       O504   2.021       .  S
Zn495       O511   2.024       .  S
Zn496       O695   1.975       .  S
Zn496       O501   2.036       .  S
Zn496       O503   2.029       .  S
Zn496       O507   2.033       .  S
Zn497       O499   1.973   1_554  S
Zn497       O502   2.036       .  S
Zn497       O505   2.045       .  S
Zn497       O508   2.030       .  S
Zn498       O499   1.968   1_554  S
Zn498       O506   2.018       .  S
Zn498       O509   2.009       .  S
Zn498       O510   2.041       .  S
O499       Zn691   1.963       .  S
O499       Zn692   1.971       .  S
O500        C512   1.274       .  A
O501        C709   1.275       .  A
O502        C514   1.274   1_554  A
O503        C512   1.274       .  A
O504        C710   1.271       .  A
O505        C513   1.275   1_554  A
O506        C515   1.274       .  A
O507        C712   1.272       .  A
O508        C515   1.275       .  A
O509        C516   1.270       .  A
O510        C517   1.274   1_554  A
O511        C713   1.274       .  A
C512        C541   1.473       .  S
C513        C552   1.445       .  S
C513        O697   1.275       .  A
C514        C587   1.446       .  S
C514        O700   1.273       .  A
C515        C545   1.472       .  S
C516        C556   1.440       .  S
C516        O703   1.273   1_554  A
C517        C578   1.439       .  S
C517        O707   1.272       .  A
Zn518       O522   1.978       .  S
Zn518       O523   2.036       .  S
Zn518       O527   2.051       .  S
Zn518       O534   2.033       .  S
Zn519       O522   1.965       .  S
Zn519       O524   2.019       .  S
Zn519       O526   2.019       .  S
Zn519       O530   2.026       .  S
Zn520       O522   1.971       .  S
Zn520       O525   2.018       .  S
Zn520       O528   2.043       .  S
Zn520       O531   2.023       .  S
Zn521       O522   1.973       .  S
Zn521       O529   2.030       .  S
Zn521       O532   2.035       .  S
Zn521       O533   2.037       .  S
O523        C535   1.275       .  A
O524        C536   1.273       .  A
O525        C537   1.272       .  A
O526        C535   1.274       .  A
O527        C537   1.275       .  A
O528        C536   1.275       .  A
O529        C538   1.274       .  A
O530        C539   1.272       .  A
O531        C538   1.274       .  A
O532        C539   1.273       .  A
O533        C540   1.275       .  A
O534        C540   1.275       .  A
C535        C546   1.475       .  S
C536        C573   1.442       .  S
C537        C554   1.445       .  S
C538        C542   1.475       .  S
C539        C584   1.442       .  S
C540        C550   1.443       .  S
C541        C542   1.343       .  D
C541        H543   1.087       .  S
C542        H544   1.087       .  S
C545        C546   1.343       .  D
C545        H547   1.087       .  S
C546        H548   1.088       .  S
C549        C550   1.210       .  T
C551        C552   1.211       .  T
C553        C554   1.212       .  T
C555        C556   1.209       .  T
C557        C558   1.209       .  T
C559        C560   1.210       .  T
C561        C562   1.211       .  T
C562        C678   1.451       .  S
C563        C564   1.211       .  T
C565        C566   1.344       .  D
C565        H567   1.087       .  S
C566        H568   1.087       .  S
C569        C570   1.341       .  D
C569        H571   1.087       .  S
C570        H572   1.087       .  S
C573        C574   1.210       .  T
C575        C576   1.208       .  T
C577        C578   1.208       .  T
C579        C580   1.210       .  T
C581        C582   1.210       .  T
C583        C584   1.210       .  T
C585        C593   1.450       .  S
C585        C586   1.210       .  T
C587        C588   1.212       .  T
N589        C593   1.358       .  A
N589       N1251   1.423   1_556  S
C590        C784   1.448       .  S
C591        C592   1.377       .  A
C591        H594   1.083       .  S
C592        C593   1.380       .  A
C592        H595   1.083       .  S
N596        C600   1.358       .  A
N596        C597   1.358       .  A
N596       N1454   1.424       .  S
C597        C777   1.446       .  S
C597        C598   1.380       .  A
C598        C599   1.376       .  A
C598        H601   1.083       .  S
C599        C600   1.380       .  A
C599        H602   1.083       .  S
C600        C779   1.444       .  S
N603        C607   1.360       .  A
N603        C604   1.358       .  A
C604        C776   1.445       .  S
C604        C605   1.379       .  A
C605        C606   1.375       .  A
C605        H608   1.083       .  S
C606        C607   1.381       .  A
C606        H609   1.083       .  S
C607        C773   1.447       .  S
N610        C614   1.358       .  A
N610        C611   1.360       .  A
C611        C771   1.452   1_565  S
C611        C612   1.380       .  A
C612        C613   1.376       .  A
C612        H615   1.083       .  S
C613        C614   1.381       .  A
C613        H616   1.083       .  S
C614        C770   1.447       .  S
Zn617       O621   1.961       .  S
Zn617       O622   2.026       .  S
Zn617       O626   2.006       .  S
Zn617       O633   2.008       .  S
Zn618       O625   2.032       .  S
Zn618       O629   2.022   1_545  S
Zn619       O627   2.038       .  S
Zn619      O1414   2.018       .  S
Zn620      O1209   1.977   1_456  S
Zn620       O628   2.055       .  S
Zn620      O1415   2.039   1_455  S
Zn620       O632   2.042   1_455  S
O621      Zn1208   1.978       .  S
O622        C634   1.272       .  A
O624        C636   1.278       .  A
O626        C636   1.271       .  A
O627        C635   1.273       .  A
O629        C638   1.275       .  A
O630      Zn1403   2.010       .  S
O631      Zn1404   2.030       .  S
O631        C638   1.275       .  A
O632       C1227   1.276   1_556  A
O633        C639   1.270       .  A
C634        C775   1.439       .  S
C635        C782   1.440       .  S
C636        C765   1.476       .  S
C637        C757   1.440       .  S
C638        C762   1.473       .  S
C639        C759   1.438       .  S
C639       O1220   1.275       .  A
Zn640       O645   2.043       .  S
Zn640      O1433   2.025       .  S
Zn641       O644   1.958   1_545  S
Zn641       O646   2.025       .  S
Zn641       O652   2.045       .  S
Zn642      O1428   1.969       .  S
Zn642       O647   2.064   1_655  S
Zn642      O1434   2.042       .  S
Zn642       O653   2.031       .  S
Zn643       O644   1.962       .  S
Zn643       O651   2.031       .  S
Zn643       O654   2.037       .  S
Zn643       O655   2.037       .  S
O644      Zn1426   1.967       .  S
O645        C657   1.275       .  A
O646        C658   1.274   1_545  A
O647        C659   1.276       .  A
O648        C657   1.272       .  A
O649      Zn1424   2.030   1_455  S
O650      Zn1426   2.038       .  S
O650        C658   1.278       .  A
O651        C660   1.274       .  A
O652        C661   1.275   1_545  A
O653       C1444   1.275       .  A
O654        C661   1.275       .  A
O655        C662   1.275       .  A
O656        C662   1.272       .  A
C657        C778   1.440       .  S
C658        C766   1.477       .  S
C659        C753   1.442       .  S
C660        C755   1.441       .  S
C660       O1437   1.275       .  A
C661        C772   1.447   1_565  S
C662        C761   1.475       .  S
N663       C1451   1.356       .  A
N663        C664   1.358   1_655  A
N663       N1177   1.423       .  S
C664        C751   1.445       .  S
C665        C666   1.376   1_455  A
C665        H668   1.083       .  S
C666       C1255   1.381       .  A
C666        H669   1.083       .  S
C667       N1447   1.357       .  A
C667        C760   1.445       .  S
C667       C1254   1.380       .  A
N670       C1458   1.360       .  A
N670        C671   1.360       .  A
N670       N1380   1.424       .  S
C671        C749   1.450   1_655  S
C671        C672   1.380       .  A
C672        C673   1.376       .  A
C672        H675   1.083   1_655  S
C673       C1458   1.381       .  A
C673        H676   1.083       .  S
C674       N1454   1.360       .  A
C674        C756   1.448       .  S
C674       C1457   1.380       .  A
C679        C680   1.376       .  A
C679        H682   1.083       .  S
C680        C681   1.381       .  A
C680        H683   1.083       .  S
C681        C747   1.450       .  S
N684        C688   1.360       .  A
C685        C754   1.450       .  S
C686        C687   1.376       .  A
C686        H689   1.083       .  S
C687        C688   1.380       .  A
C687        H690   1.083       .  S
C688        C745   1.449       .  S
Zn691       O696   2.013       .  S
Zn691       O700   2.037       .  S
Zn691       O707   2.010       .  S
Zn692       O697   2.026       .  S
Zn692       O699   2.033       .  S
Zn692       O703   2.042       .  S
Zn693       O695   1.972       .  S
Zn693       O698   2.037       .  S
Zn693       O701   2.035       .  S
Zn693       O704   2.033       .  S
Zn694       O695   1.969       .  S
Zn694       O702   2.012       .  S
Zn694       O705   2.017       .  S
Zn694       O706   2.036       .  S
O696        C708   1.274       .  A
O698        C710   1.274       .  A
O699        C708   1.275       .  A
O701        C709   1.274       .  A
O702        C711   1.273       .  A
O704        C711   1.275       .  A
O705        C712   1.272       .  A
O706        C713   1.274       .  A
C708        C737   1.476       .  S
C709        C748   1.444       .  S
C710        C783   1.442       .  S
C711        C741   1.473       .  S
C712        C752   1.440       .  S
C713        C774   1.441       .  S
Zn714       O718   1.974       .  S
Zn714       O719   2.035       .  S
Zn714       O723   2.048       .  S
Zn714       O730   2.033       .  S
Zn715       O718   1.958       .  S
Zn715       O720   2.009       .  S
Zn715       O722   2.006       .  S
Zn715       O726   2.010       .  S
Zn716       O718   1.970       .  S
Zn716       O721   2.016       .  S
Zn716       O724   2.046       .  S
Zn716       O727   2.026       .  S
Zn717       O718   1.968       .  S
Zn717       O725   2.014       .  S
Zn717       O728   2.033       .  S
Zn717       O729   2.036       .  S
O719        C731   1.275       .  A
O720        C732   1.271       .  A
O721        C733   1.272       .  A
O722        C731   1.272       .  A
O723        C733   1.275       .  A
O724        C732   1.275       .  A
O725        C734   1.272       .  A
O726        C735   1.269       .  A
O727        C734   1.275       .  A
O728        C735   1.273       .  A
O729        C736   1.275       .  A
O730        C736   1.275       .  A
C731        C742   1.472       .  S
C732        C769   1.440       .  S
C733        C750   1.443       .  S
C734        C738   1.468       .  S
C735        C780   1.438       .  S
C736        C746   1.443       .  S
C737        C738   1.342       .  D
C737        H739   1.088       .  S
C738        H740   1.087       .  S
C741        C742   1.344       .  D
C741        H743   1.087       .  S
C742        H744   1.087       .  S
C745        C746   1.211       .  T
C747        C748   1.211       .  T
C749        C750   1.211       .  T
C751        C752   1.208       .  T
C753        C754   1.211       .  T
C755        C756   1.209       .  T
C757        C758   1.209       .  T
C759        C760   1.208       .  T
C761        C762   1.345       .  D
C761        H763   1.087       .  S
C762        H764   1.087       .  S
C765        C766   1.341       .  D
C765        H767   1.087       .  S
C766        H768   1.087   1_565  S
C769        C770   1.209       .  T
C771        C772   1.213       .  T
C773        C774   1.209       .  T
C775        C776   1.208       .  T
C777        C778   1.208       .  T
C779        C780   1.207       .  T
C781        C782   1.209       .  T
C783        C784   1.210       .  T
N785        C789   1.359       .  A
N785        C982   1.359       .  A
C786        N981   1.359       .  A
C786        C980   1.446       .  S
C786        C983   1.382       .  A
C787        C982   1.381       .  A
C787        C788   1.376       .  A
C787        H790   1.083       .  S
C788        C789   1.380       .  A
C788        H791   1.083       .  S
C789       C1173   1.448   1_655  S
N792        C796   1.359       .  A
N792        C793   1.361       .  A
C793        C973   1.450       .  S
C793        C794   1.382       .  A
C794        C795   1.376       .  A
C794        H797   1.083       .  S
C795        C796   1.379       .  A
C795        H798   1.083       .  S
C796        C975   1.450       .  S
N799        C803   1.361       .  A
N799        C800   1.359       .  A
N799       N1461   1.423   1_554  S
C800        C972   1.448       .  S
C800        C801   1.380       .  A
C801        C802   1.376       .  A
C801        H804   1.083       .  S
C802        C803   1.381       .  A
C802        H805   1.083       .  S
C803        C969   1.451       .  S
N806        C810   1.359       .  A
N806        C807   1.359       .  A
N806       N1272   1.424       .  S
C807        C967   1.448       .  S
C807        C808   1.382       .  A
C808        C809   1.376       .  A
C808        H811   1.083       .  S
C809        C810   1.380       .  A
C809        H812   1.083       .  S
C810        C966   1.449       .  S
Zn813       O817   1.957   1_554  S
Zn813       O818   2.020       .  S
Zn813       O822   2.023       .  S
Zn813       O829   2.038       .  S
Zn814      O1013   1.958       .  S
Zn814      O1211   2.016       .  S
Zn814       O821   2.010       .  S
Zn814       O825   2.017       .  S
Zn815      O1209   1.960   1_455  S
Zn815      O1212   2.007   1_455  S
Zn815       O823   2.021   1_565  S
Zn816       O824   2.031       .  S
Zn816       O828   2.033       .  S
O817      Zn1010   1.970       .  S
O817      Zn1207   1.974   1_656  S
O818        C830   1.273       .  A
O819      Zn1206   2.009       .  S
O819       C1027   1.271       .  A
O820      Zn1207   2.049       .  S
O820        C832   1.279   1_455  A
O821       C1026   1.271       .  A
O822        C832   1.274       .  A
O823        C831   1.272   1_455  A
O824       C1029   1.273       .  A
O825        C834   1.273       .  A
O826       C1225   1.271       .  A
O827        C834   1.277   1_455  A
O829        C835   1.273   1_554  A
C830        C971   1.441       .  S
C830       O1017   1.275   1_554  A
C831        C978   1.442       .  S
C831       O1015   1.275   1_554  A
C832        C961   1.481       .  S
C833        C953   1.441       .  S
C833       O1020   1.270       .  A
C833       O1218   1.275   1_556  A
C834        C958   1.482       .  S
C835        C955   1.440       .  S
Zn836      O1232   1.973   1_455  S
Zn836       O841   2.055   1_565  S
Zn836      O1244   2.023   1_455  S
Zn837       O840   1.957       .  S
Zn837       O842   1.995       .  S
Zn837      O1236   1.994       .  S
Zn837       O848   2.027       .  S
Zn838       O843   2.056       .  S
Zn838       O849   2.051       .  S
Zn839       O840   1.973       .  S
Zn839       O847   2.035       .  S
Zn839       O850   2.043       .  S
Zn839       O851   2.034       .  S
O840      Zn1228   1.975   1_655  S
O841        C853   1.276   1_455  A
O842        C854   1.270       .  A
O843        C855   1.276       .  A
O844      Zn1229   2.015       .  S
O844        C853   1.272       .  A
O845       C1247   1.273       .  A
O846        C854   1.279       .  A
O847        C856   1.275       .  A
O848        C857   1.272       .  A
O850        C857   1.275       .  A
O851        C858   1.275       .  A
O852      Zn1228   2.035   1_655  S
O852        C858   1.276       .  A
C853        C974   1.444       .  S
C854        C962   1.478       .  S
C855        C949   1.443       .  S
C855       O1237   1.271       .  A
C856        C951   1.446       .  S
C857        C968   1.444       .  S
C858        C957   1.477       .  S
N859        C860   1.360       .  A
C860        C947   1.449       .  S
C860       C1057   1.380       .  A
C861       C1056   1.380       .  A
C861        C862   1.376       .  A
C861        H864   1.083       .  S
C862        H865   1.083       .  S
C863        C956   1.446       .  S
N866        C867   1.358       .  A
C867        C945   1.446       .  S
C867        C868   1.381       .  A
C868        C869   1.377       .  A
C868        H871   1.083       .  S
C869        H872   1.083       .  S
C870        C952   1.452       .  S
N873       C1073   1.361   1_565  A
N873       C1266   1.360       .  A
N873       N1387   1.424       .  S
C874       N1265   1.358       .  A
C874       C1150   1.445       .  S
C874       C1463   1.380       .  A
C875       C1462   1.381       .  A
C875        C876   1.376       .  A
C875        H878   1.083       .  S
C876        C877   1.380       .  A
C876        H879   1.083   1_565  S
C877       N1069   1.360       .  A
C877        C943   1.448   1_565  S
N880        C884   1.359       .  A
N880       C1273   1.358       .  A
N880       N1198   1.423       .  S
C881       N1272   1.360       .  A
C881        C950   1.450       .  S
C881       C1274   1.380       .  A
C882       C1273   1.382       .  A
C882        C883   1.376       .  A
C882        H885   1.083       .  S
C883        C884   1.379       .  A
C883        H886   1.083   1_565  S
C884        C941   1.450   1_565  S
Zn887      O1087   1.964       .  S
Zn887       O892   2.014       .  S
Zn887       O896   2.031       .  S
Zn887       O903   2.019       .  S
Zn888      O1087   1.980       .  S
Zn888       O893   2.031       .  S
Zn888       O895   2.038       .  S
Zn888       O899   2.058       .  S
Zn889       O891   1.947       .  S
Zn889       O894   1.993       .  S
Zn889       O897   2.025       .  S
Zn889       O900   1.993       .  S
Zn890       O891   1.971       .  S
Zn890       O898   2.046       .  S
Zn890       O901   2.038       .  S
Zn890       O902   2.038       .  S
O891      Zn1083   1.978   1_554  S
O891      Zn1084   1.954   1_554  S
O892        C904   1.274       .  A
O893       C1101   1.274       .  A
O894        C906   1.270       .  A
O895        C904   1.276       .  A
O896       C1102   1.273       .  A
O897        C905   1.272       .  A
O898        C907   1.276       .  A
O899       C1104   1.276       .  A
O900        C907   1.270       .  A
O901        C908   1.276   1_554  A
O902        C909   1.275       .  A
O903       C1105   1.273       .  A
C904        C933   1.477       .  S
C905        C944   1.441       .  S
C905       O1089   1.273   1_554  A
C906        C979   1.438       .  S
C906       O1092   1.275   1_554  A
C907        C937   1.470       .  S
C908        C948   1.442       .  S
C908       O1095   1.273       .  A
C909        C970   1.446       .  S
C909       O1099   1.276   1_554  A
Zn910       O914   1.976       .  S
Zn910       O915   2.032       .  S
Zn910       O919   2.028       .  S
Zn910       O926   2.038       .  S
Zn911       O914   1.955       .  S
Zn911       O916   2.017       .  S
Zn911       O918   2.004       .  S
Zn911       O922   2.024       .  S
Zn912       O914   1.968       .  S
Zn912       O917   2.030       .  S
Zn912       O920   2.042       .  S
Zn912       O923   2.021       .  S
Zn913       O914   1.970       .  S
Zn913       O921   2.034       .  S
Zn913       O924   2.047       .  S
Zn913       O925   2.029       .  S
O915        C927   1.274       .  A
O916        C928   1.272       .  A
O917        C929   1.274       .  A
O918        C927   1.274       .  A
O919        C929   1.272       .  A
O920        C928   1.274       .  A
O921        C930   1.276       .  A
O922        C931   1.272       .  A
O923        C930   1.274       .  A
O924        C931   1.276       .  A
O925        C932   1.273       .  A
O926        C932   1.275       .  A
C927        C938   1.475       .  S
C928        C965   1.442       .  S
C929        C946   1.441       .  S
C930        C934   1.472       .  S
C931        C976   1.445       .  S
C932        C942   1.444       .  S
C933        C934   1.344       .  D
C933        H935   1.087       .  S
C934        H936   1.087       .  S
C937        C938   1.341       .  D
C937        H939   1.087       .  S
C938        H940   1.086       .  S
C941        C942   1.211       .  T
C943        C944   1.209       .  T
C945        C946   1.209       .  T
C947        C948   1.210       .  T
C949        C950   1.210       .  T
C951        C952   1.212       .  T
C953        C954   1.209       .  T
C954       C1070   1.447       .  S
C955        C956   1.209       .  T
C957        C958   1.347       .  D
C957        H959   1.087       .  S
C958        H960   1.087   1_655  S
C961        C962   1.340       .  D
C961        H963   1.087       .  S
C962        H964   1.087       .  S
C965        C966   1.210       .  T
C967        C968   1.210       .  T
C969        C970   1.212       .  T
C971        C972   1.209       .  T
C973        C974   1.211       .  T
C975        C976   1.211       .  T
C977        C985   1.449       .  S
C977        C978   1.210       .  T
C979        C980   1.208       .  T
N981        C985   1.359       .  A
C982       C1176   1.448       .  S
C983        C984   1.376       .  A
C983        H986   1.083       .  S
C984        C985   1.379       .  A
C984        H987   1.083       .  S
N988        C992   1.356       .  A
N988        C989   1.363       .  A
C989       C1169   1.438       .  S
C989        C990   1.379       .  A
C990        C991   1.362       .  A
C990        H993   1.083       .  S
C991        C992   1.378       .  A
C991        H994   1.083       .  S
C992       C1171   1.430       .  S
N995        C999   1.359       .  A
N995        C996   1.358       .  A
N995       N1265   1.423       .  S
C996       C1168   1.445       .  S
C996        C997   1.380       .  A
C997        C998   1.375       .  A
C997       H1000   1.083       .  S
C998        C999   1.381       .  A
C998       H1001   1.083       .  S
C999       C1165   1.448       .  S
N1002      C1006   1.359       .  A
N1002      C1003   1.360       .  A
N1002      N1468   1.424       .  S
C1003      C1163   1.449       .  S
C1003      C1004   1.381       .  A
C1004      C1005   1.377       .  A
C1004      H1007   1.083       .  S
C1005      C1006   1.380       .  A
C1005      H1008   1.083       .  S
C1006      C1162   1.448       .  S
Zn1009     O1013   1.972       .  S
Zn1009     O1014   2.044       .  S
Zn1009     O1018   2.034       .  S
Zn1009     O1025   2.032       .  S
Zn1010     O1407   2.012       .  S
Zn1010     O1017   2.042       .  S
Zn1010     O1021   2.044       .  S
Zn1011     O1405   1.969   1_455  S
Zn1011     O1408   2.032   1_455  S
Zn1011     O1019   2.046   1_565  S
Zn1012     O1020   2.007       .  S
Zn1012     O1024   2.015       .  S
O1013     Zn1403   1.965   1_655  S
O1014      C1026   1.276       .  A
O1015     Zn1402   2.041       .  S
O1016     Zn1403   2.018   1_655  S
O1016      C1028   1.272       .  A
O1018      C1028   1.275       .  A
O1019      C1027   1.275   1_455  A
O1021      C1030   1.276       .  A
O1022      C1421   1.276       .  A
O1023      C1030   1.270       .  A
O1025      C1031   1.274       .  A
C1026      C1167   1.439       .  S
C1027      C1174   1.441   1_655  S
C1028      C1157   1.474       .  S
C1029      C1149   1.438       .  S
C1029      O1414   1.273       .  A
C1030      C1154   1.473       .  S
C1031      C1151   1.445       .  S
Zn1032     O1428   1.949       .  S
Zn1032     O1037   2.011   1_565  S
Zn1032     O1440   2.009       .  S
Zn1033     O1036   1.958       .  S
Zn1033     O1038   2.020       .  S
Zn1033     O1432   2.016       .  S
Zn1033     O1044   2.040       .  S
Zn1034     O1039   2.044       .  S
Zn1034     O1045   2.028       .  S
Zn1035     O1036   1.970       .  S
Zn1035     O1043   2.033       .  S
Zn1035     O1046   2.028       .  S
Zn1035     O1047   2.020       .  S
O1036     Zn1424   1.964       .  S
O1037      C1049   1.270       .  A
O1038      C1050   1.275       .  A
O1039      C1051   1.275       .  A
O1040     Zn1425   2.027       .  S
O1040      C1049   1.274       .  A
O1041      C1443   1.269       .  A
O1042      C1050   1.275       .  A
O1043      C1052   1.273       .  A
O1044      C1053   1.274       .  A
O1046      C1053   1.273       .  A
O1047      C1054   1.273       .  A
O1048     Zn1424   2.027       .  S
O1048      C1054   1.276       .  A
C1049      C1170   1.436       .  S
C1050      C1158   1.477       .  S
C1051      C1145   1.445       .  S
C1051      O1433   1.274       .  A
C1052      C1147   1.439       .  S
C1053      C1164   1.444       .  S
C1054      C1153   1.475       .  S
N1055      C1056   1.359       .  A
C1056      C1143   1.449       .  S
C1057      C1058   1.376       .  A
C1057      H1060   1.083       .  S
C1058      H1061   1.083       .  S
C1059      C1152   1.450       .  S
N1062      C1063   1.357       .  A
C1063      C1141   1.436       .  S
C1063      C1064   1.379       .  A
C1064      C1065   1.368       .  A
C1064      H1067   1.083       .  S
C1065      H1068   1.083       .  S
C1066      C1148   1.443       .  S
N1069      C1462   1.359       .  A
N1069      N1191   1.424   1_554  S
C1070      N1461   1.357       .  A
C1070      C1267   1.381       .  A
C1071      C1266   1.381       .  A
C1071      C1072   1.376       .  A
C1071      H1074   1.083       .  S
C1072      C1073   1.380   1_565  A
C1072      H1075   1.083   1_565  S
C1073      C1139   1.451       .  S
N1076      C1080   1.360   1_565  A
N1076      C1469   1.359       .  A
N1076      N1394   1.423       .  S
C1077      N1468   1.360       .  A
C1077      C1146   1.450       .  S
C1077      C1470   1.379       .  A
C1078      C1469   1.381       .  A
C1078      C1079   1.375   1_565  A
C1078      H1081   1.083       .  S
C1079      C1080   1.380       .  A
C1079      H1082   1.083       .  S
C1080      C1137   1.452       .  S
Zn1083     O1088   2.056       .  S
Zn1083     O1092   2.054       .  S
Zn1083     O1099   2.041       .  S
Zn1084     O1089   2.031       .  S
Zn1084     O1091   2.014       .  S
Zn1084     O1095   2.025       .  S
Zn1085     O1087   1.972       .  S
Zn1085     O1090   2.033       .  S
Zn1085     O1093   2.039       .  S
Zn1085     O1096   2.028       .  S
Zn1086     O1087   1.967       .  S
Zn1086     O1094   2.017       .  S
Zn1086     O1097   2.001       .  S
Zn1086     O1098   2.042       .  S
O1088      C1100   1.279       .  A
O1090      C1102   1.274       .  A
O1091      C1100   1.273       .  A
O1093      C1101   1.274       .  A
O1094      C1103   1.274       .  A
O1096      C1103   1.274       .  A
O1097      C1104   1.270       .  A
O1098      C1105   1.274       .  A
C1100      C1129   1.478       .  S
C1101      C1140   1.445       .  S
C1102      C1175   1.443       .  S
C1103      C1133   1.474       .  S
C1104      C1144   1.441       .  S
C1105      C1166   1.442       .  S
Zn1106     O1110   1.960       .  S
Zn1106     O1111   2.041       .  S
Zn1106     O1115   2.040       .  S
Zn1106     O1122   2.050       .  S
Zn1107     O1110   1.957       .  S
Zn1107     O1112   2.026       .  S
Zn1107     O1114   2.019       .  S
Zn1107     O1118   2.022       .  S
Zn1108     O1110   1.946       .  S
Zn1108     O1113   1.990       .  S
Zn1108     O1116   2.033       .  S
Zn1108     O1119   2.034       .  S
Zn1109     O1110   1.938       .  S
Zn1109     O1117   2.028       .  S
Zn1109     O1120   1.977       .  S
Zn1109     O1121   2.029       .  S
O1111      C1123   1.278       .  A
O1112      C1124   1.273       .  A
O1113      C1125   1.272       .  A
O1114      C1123   1.276       .  A
O1115      C1125   1.276       .  A
O1116      C1124   1.272       .  A
O1117      C1126   1.275       .  A
O1118      C1127   1.272       .  A
O1119      C1126   1.274       .  A
O1120      C1127   1.271       .  A
O1121      C1128   1.273       .  A
O1122      C1128   1.275       .  A
C1123      C1134   1.476       .  S
C1124      C1161   1.443       .  S
C1125      C1142   1.432       .  S
C1126      C1130   1.483       .  S
C1127      C1172   1.424       .  S
C1128      C1138   1.447       .  S
C1129      C1130   1.344       .  D
C1129      H1131   1.087       .  S
C1130      H1132   1.086       .  S
C1133      C1134   1.345       .  D
C1133      H1135   1.087       .  S
C1134      H1136   1.087       .  S
C1137      C1138   1.213       .  T
C1139      C1140   1.211       .  T
C1141      C1142   1.204       .  T
C1143      C1144   1.210       .  T
C1145      C1146   1.211       .  T
C1147      C1148   1.208       .  T
C1149      C1150   1.208       .  T
C1151      C1152   1.211       .  T
C1153      C1154   1.341       .  D
C1153      H1155   1.086       .  S
C1154      H1156   1.087       .  S
C1157      C1158   1.344       .  D
C1157      H1159   1.087       .  S
C1158      H1160   1.087       .  S
C1161      C1162   1.210       .  T
C1163      C1164   1.211       .  T
C1165      C1166   1.210       .  T
C1167      C1168   1.208       .  T
C1169      C1170   1.206       .  T
C1171      C1172   1.199       .  T
C1173      C1174   1.209       .  T
C1175      C1176   1.210       .  T
N1177      C1181   1.359       .  A
N1177      C1374   1.359       .  A
C1178      N1373   1.360       .  A
C1178      C1372   1.452       .  S
C1178      C1375   1.381       .  A
C1179      C1374   1.380       .  A
C1179      C1180   1.376       .  A
C1179      H1182   1.083       .  S
C1180      C1181   1.381       .  A
C1180      H1183   1.083       .  S
C1181      C1565   1.445       .  S
N1184      C1188   1.360       .  A
N1184      C1185   1.358       .  A
C1185      C1365   1.447       .  S
C1185      C1186   1.380       .  A
C1186      C1187   1.376       .  A
C1186      H1189   1.083       .  S
C1187      C1188   1.381       .  A
C1187      H1190   1.083       .  S
C1188      C1367   1.449       .  S
N1191      C1195   1.359       .  A
N1191      C1192   1.358       .  A
C1192      C1364   1.446       .  S
C1192      C1193   1.380       .  A
C1193      C1194   1.376       .  A
C1193      H1196   1.083       .  S
C1194      C1195   1.381       .  A
C1194      H1197   1.083       .  S
C1195      C1361   1.446       .  S
N1198      C1202   1.361       .  A
N1198      C1199   1.358       .  A
C1199      C1359   1.449       .  S
C1199      C1200   1.380       .  A
C1200      C1201   1.376       .  A
C1200      H1203   1.083       .  S
C1201      C1202   1.382       .  A
C1201      H1204   1.083       .  S
C1202      C1358   1.449       .  S
Zn1205     O1209   1.973       .  S
Zn1205     O1210   2.030       .  S
Zn1205     O1214   2.030       .  S
Zn1205     O1221   2.031       .  S
Zn1206     O1405   1.952   1_545  S
Zn1206     O1213   2.016       .  S
Zn1206     O1217   2.007   1_545  S
Zn1207     O1215   2.055       .  S
Zn1208     O1216   2.038       .  S
Zn1208     O1220   2.041       .  S
O1209     Zn1402   1.971   1_564  S
O1210      C1222   1.273   1_554  A
O1211      C1419   1.272       .  A
O1212      C1224   1.272       .  A
O1213      C1418   1.271   1_545  A
O1214      C1224   1.274       .  A
O1215      C1223   1.277   1_454  A
O1216      C1421   1.274       .  A
O1217      C1226   1.273       .  A
O1219      C1226   1.275   1_455  A
O1221      C1227   1.274       .  A
C1222      C1363   1.439       .  S
C1222      O1409   1.271   1_565  A
C1223      C1370   1.443       .  S
C1223      O1407   1.272       .  A
C1224      C1353   1.472       .  S
C1225      C1345   1.440       .  S
C1225      O1412   1.274   1_554  A
C1226      C1350   1.474       .  S
C1227      C1347   1.444       .  S
Zn1228     O1233   2.054       .  S
Zn1229     O1232   1.960   1_545  S
Zn1229     O1234   2.011   1_545  S
Zn1229     O1240   2.014       .  S
Zn1230     O1235   2.031       .  S
Zn1230     O1241   2.026       .  S
Zn1231     O1232   1.972       .  S
Zn1231     O1239   2.043       .  S
Zn1231     O1242   2.046       .  S
Zn1231     O1243   2.023       .  S
O1233      C1245   1.275   1_455  A
O1234      C1246   1.273       .  A
O1235      C1247   1.272       .  A
O1236      C1245   1.269       .  A
O1238      C1246   1.273       .  A
O1239      C1248   1.275       .  A
O1240      C1249   1.270   1_545  A
O1242      C1249   1.275       .  A
O1243      C1250   1.274       .  A
O1244      C1250   1.275       .  A
C1245      C1366   1.440       .  S
C1246      C1354   1.469       .  S
C1247      C1341   1.441       .  S
C1248      C1343   1.445       .  S
C1249      C1360   1.442       .  S
C1250      C1349   1.471       .  S
N1251      C1252   1.360       .  A
C1252      C1339   1.450       .  S
C1252      C1449   1.380       .  A
C1253      C1448   1.381       .  A
C1253      C1254   1.376       .  A
C1253      H1256   1.083       .  S
C1254      H1257   1.083       .  S
C1255      C1348   1.449       .  S
N1258      C1259   1.359       .  A
C1259      C1337   1.446       .  S
C1259      C1260   1.379       .  A
C1260      C1261   1.376       .  A
C1260      H1263   1.083       .  S
C1261      H1264   1.083       .  S
C1262      C1344   1.450       .  S
N1265      C1465   1.360       .  A
C1266      C1542   1.448       .  S
C1267      C1268   1.376       .  A
C1267      H1270   1.083       .  S
C1268      C1269   1.380       .  A
C1268      H1271   1.083       .  S
C1269      N1461   1.359       .  A
C1269      C1335   1.449       .  S
N1272      C1276   1.362       .  A
C1273      C1342   1.446       .  S
C1274      C1275   1.376       .  A
C1274      H1277   1.083       .  S
C1275      C1276   1.381       .  A
C1275      H1278   1.083       .  S
C1276      C1333   1.451       .  S
Zn1279     O1479   1.961       .  S
Zn1279     O1284   2.015       .  S
Zn1279     O1288   2.023       .  S
Zn1279     O1295   2.023       .  S
Zn1280     O1479   1.973       .  S
Zn1280     O1285   2.028       .  S
Zn1280     O1287   2.023       .  S
Zn1280     O1291   2.038       .  S
Zn1281     O1283   1.977   1_554  S
Zn1281     O1286   2.038       .  S
Zn1281     O1289   2.046       .  S
Zn1281     O1292   2.034       .  S
Zn1282     O1283   1.970   1_554  S
Zn1282     O1290   2.019       .  S
Zn1282     O1293   2.011       .  S
Zn1282     O1294   2.040       .  S
O1283     Zn1475   1.967       .  S
O1283     Zn1476   1.972       .  S
O1284      C1296   1.275       .  A
O1285      C1493   1.274       .  A
O1286      C1298   1.274   1_554  A
O1287      C1296   1.274       .  A
O1288      C1494   1.271       .  A
O1289      C1297   1.276   1_554  A
O1290      C1299   1.274       .  A
O1291      C1496   1.273       .  A
O1292      C1299   1.275       .  A
O1293      C1300   1.270       .  A
O1294      C1301   1.275   1_554  A
O1295      C1497   1.274       .  A
C1296      C1325   1.476       .  S
C1297      C1336   1.443       .  S
C1297      O1481   1.274       .  A
C1298      C1371   1.447       .  S
C1298      O1484   1.274       .  A
C1299      C1329   1.473       .  S
C1300      C1340   1.443       .  S
C1300      O1487   1.274   1_554  A
C1301      C1362   1.439       .  S
C1301      O1491   1.273       .  A
Zn1302     O1306   1.975       .  S
Zn1302     O1307   2.035       .  S
Zn1302     O1311   2.040       .  S
Zn1302     O1318   2.032       .  S
Zn1303     O1306   1.961       .  S
Zn1303     O1308   2.033       .  S
Zn1303     O1310   2.016       .  S
Zn1303     O1314   2.025       .  S
Zn1304     O1306   1.968       .  S
Zn1304     O1309   2.009       .  S
Zn1304     O1312   2.037       .  S
Zn1304     O1315   2.009       .  S
Zn1305     O1306   1.972       .  S
Zn1305     O1313   2.029       .  S
Zn1305     O1316   2.038       .  S
Zn1305     O1317   2.044       .  S
O1307      C1319   1.275       .  A
O1308      C1320   1.274       .  A
O1309      C1321   1.271       .  A
O1310      C1319   1.274       .  A
O1311      C1321   1.274       .  A
O1312      C1320   1.273       .  A
O1313      C1322   1.274       .  A
O1314      C1323   1.273       .  A
O1315      C1322   1.272       .  A
O1316      C1323   1.275       .  A
O1317      C1324   1.275       .  A
O1318      C1324   1.274       .  A
C1319      C1330   1.475       .  S
C1320      C1357   1.444       .  S
C1321      C1338   1.438       .  S
C1322      C1326   1.466       .  S
C1323      C1368   1.443       .  S
C1324      C1334   1.446       .  S
C1325      C1326   1.342       .  D
C1325      H1327   1.088       .  S
C1326      H1328   1.086       .  S
C1329      C1330   1.344       .  D
C1329      H1331   1.088       .  S
C1330      H1332   1.088       .  S
C1333      C1334   1.212       .  T
C1335      C1336   1.210       .  T
C1337      C1338   1.208       .  T
C1339      C1340   1.211       .  T
C1341      C1342   1.209       .  T
C1343      C1344   1.211       .  T
C1345      C1346   1.209       .  T
C1346      C1462   1.447       .  S
C1347      C1348   1.211       .  T
C1349      C1350   1.344       .  D
C1349      H1351   1.087       .  S
C1350      H1352   1.087   1_655  S
C1353      C1354   1.342       .  D
C1353      H1355   1.087       .  S
C1354      H1356   1.087   1_655  S
C1357      C1358   1.211       .  T
C1359      C1360   1.210       .  T
C1361      C1362   1.208       .  T
C1363      C1364   1.208       .  T
C1365      C1366   1.209       .  T
C1367      C1368   1.210       .  T
C1369      C1377   1.451       .  S
C1369      C1370   1.211       .  T
C1371      C1372   1.213       .  T
N1373      C1377   1.360       .  A
C1374      C1568   1.448       .  S
C1375      C1376   1.377       .  A
C1375      H1378   1.083       .  S
C1376      C1377   1.380       .  A
C1376      H1379   1.083       .  S
N1380      C1384   1.359       .  A
N1380      C1381   1.358       .  A
C1381      C1561   1.446       .  S
C1381      C1382   1.380       .  A
C1382      C1383   1.376       .  A
C1382      H1385   1.083       .  S
C1383      C1384   1.380       .  A
C1383      H1386   1.083       .  S
C1384      C1563   1.446       .  S
N1387      C1391   1.360       .  A
N1387      C1388   1.358       .  A
C1388      C1560   1.447       .  S
C1388      C1389   1.379       .  A
C1389      C1390   1.376       .  A
C1389      H1392   1.083       .  S
C1390      C1391   1.381       .  A
C1390      H1393   1.083       .  S
C1391      C1557   1.449       .  S
N1394      C1398   1.361       .  A
N1394      C1395   1.359       .  A
C1395      C1555   1.452   1_565  S
C1395      C1396   1.381       .  A
C1396      C1397   1.377       .  A
C1396      H1399   1.083       .  S
C1397      C1398   1.381       .  A
C1397      H1400   1.083       .  S
C1398      C1554   1.450       .  S
Zn1401     O1405   1.961       .  S
Zn1401     O1406   2.035       .  S
Zn1401     O1410   2.012       .  S
Zn1401     O1417   2.007       .  S
Zn1402     O1409   2.021       .  S
Zn1402     O1413   2.024   1_545  S
Zn1403     O1411   2.031       .  S
Zn1404     O1412   2.044       .  S
Zn1404     O1416   2.039       .  S
O1406      C1418   1.274       .  A
O1408      C1420   1.276       .  A
O1410      C1420   1.272       .  A
O1411      C1419   1.272   1_455  A
O1413      C1422   1.275       .  A
O1415      C1422   1.276       .  A
O1417      C1423   1.270       .  A
C1418      C1559   1.440       .  S
C1419      C1566   1.439   1_655  S
C1420      C1549   1.475       .  S
C1421      C1541   1.443       .  S
C1422      C1546   1.476       .  S
C1423      C1543   1.438       .  S
Zn1424     O1429   2.040       .  S
Zn1425     O1428   1.958   1_545  S
Zn1425     O1430   2.012       .  S
Zn1425     O1436   2.039       .  S
Zn1426     O1431   2.056       .  S
Zn1426     O1437   2.033       .  S
Zn1427     O1428   1.965       .  S
Zn1427     O1435   2.034       .  S
Zn1427     O1438   2.047       .  S
Zn1427     O1439   2.049       .  S
O1429      C1441   1.274       .  A
O1430      C1442   1.273   1_545  A
O1431      C1443   1.275       .  A
O1432      C1441   1.273       .  A
O1434      C1442   1.278       .  A
O1435      C1444   1.275       .  A
O1436      C1445   1.274   1_545  A
O1438      C1445   1.276       .  A
O1439      C1446   1.277       .  A
O1440      C1446   1.272       .  A
C1441      C1562   1.439       .  S
C1442      C1550   1.473       .  S
C1443      C1537   1.441       .  S
C1444      C1539   1.441       .  S
C1445      C1556   1.447   1_565  S
C1446      C1545   1.479       .  S
N1447      C1448   1.358       .  A
C1448      C1535   1.447       .  S
C1449      C1450   1.377       .  A
C1449      H1452   1.083       .  S
C1450      H1453   1.083       .  S
C1451      C1544   1.445       .  S
N1454      C1455   1.360       .  A
C1455      C1533   1.447       .  S
C1455      C1456   1.380       .  A
C1456      C1457   1.376       .  A
C1456      H1459   1.083       .  S
C1457      H1460   1.083       .  S
C1458      C1540   1.448       .  S
C1463      C1464   1.375       .  A
C1463      H1466   1.083       .  S
C1464      C1465   1.380       .  A
C1464      H1467   1.083       .  S
C1465      C1531   1.448       .  S
N1468      C1472   1.360       .  A
C1469      C1538   1.448       .  S
C1470      C1471   1.375       .  A
C1470      H1473   1.083       .  S
C1471      C1472   1.381       .  A
C1471      H1474   1.083       .  S
C1472      C1529   1.446       .  S
Zn1475     O1480   2.023       .  S
Zn1475     O1484   2.043       .  S
Zn1475     O1491   2.013       .  S
Zn1476     O1481   2.018       .  S
Zn1476     O1483   2.038       .  S
Zn1476     O1487   2.052       .  S
Zn1477     O1479   1.970       .  S
Zn1477     O1482   2.035       .  S
Zn1477     O1485   2.031       .  S
Zn1477     O1488   2.023       .  S
Zn1478     O1479   1.967       .  S
Zn1478     O1486   2.019       .  S
Zn1478     O1489   2.017       .  S
Zn1478     O1490   2.044       .  S
O1480      C1492   1.275       .  A
O1482      C1494   1.274       .  A
O1483      C1492   1.275       .  A
O1485      C1493   1.273       .  A
O1486      C1495   1.274       .  A
O1488      C1495   1.274       .  A
O1489      C1496   1.272       .  A
O1490      C1497   1.275       .  A
C1492      C1521   1.482       .  S
C1493      C1532   1.442       .  S
C1494      C1567   1.442       .  S
C1495      C1525   1.470       .  S
C1496      C1536   1.441       .  S
C1497      C1558   1.444       .  S
Zn1498     O1502   1.979       .  S
Zn1498     O1503   2.036       .  S
Zn1498     O1507   2.045       .  S
Zn1498     O1514   2.029       .  S
Zn1499     O1502   1.957       .  S
Zn1499     O1504   2.013       .  S
Zn1499     O1506   2.003       .  S
Zn1499     O1510   2.017       .  S
Zn1500     O1502   1.971       .  S
Zn1500     O1505   2.010       .  S
Zn1500     O1508   2.052       .  S
Zn1500     O1511   2.035       .  S
Zn1501     O1502   1.970       .  S
Zn1501     O1509   2.022       .  S
Zn1501     O1512   2.034       .  S
Zn1501     O1513   2.032       .  S
O1503      C1515   1.275       .  A
O1504      C1516   1.272       .  A
O1505      C1517   1.271       .  A
O1506      C1515   1.272       .  A
O1507      C1517   1.274       .  A
O1508      C1516   1.275       .  A
O1509      C1518   1.273       .  A
O1510      C1519   1.271       .  A
O1511      C1518   1.275       .  A
O1512      C1519   1.273       .  A
O1513      C1520   1.274       .  A
O1514      C1520   1.274       .  A
C1515      C1526   1.474       .  S
C1516      C1553   1.443       .  S
C1517      C1534   1.440       .  S
C1518      C1522   1.472       .  S
C1519      C1564   1.440       .  S
C1520      C1530   1.440       .  S
C1521      C1522   1.345       .  D
C1521      H1523   1.088       .  S
C1522      H1524   1.086       .  S
C1525      C1526   1.344       .  D
C1525      H1527   1.087       .  S
C1526      H1528   1.087       .  S
C1529      C1530   1.209       .  T
C1531      C1532   1.210       .  T
C1533      C1534   1.209       .  T
C1535      C1536   1.209       .  T
C1537      C1538   1.210       .  T
C1539      C1540   1.210       .  T
C1541      C1542   1.210       .  T
C1543      C1544   1.208       .  T
C1545      C1546   1.347       .  D
C1545      H1547   1.086       .  S
C1546      H1548   1.086   1_655  S
C1549      C1550   1.340       .  D
C1549      H1551   1.087       .  S
C1550      H1552   1.087   1_565  S
C1553      C1554   1.211       .  T
C1555      C1556   1.213       .  T
C1557      C1558   1.211       .  T
C1559      C1560   1.209       .  T
C1561      C1562   1.208       .  T
C1563      C1564   1.209       .  T
C1565      C1566   1.208   1_655  T
C1567      C1568   1.210       .  T
