geometry optimzed in LAMMPS
_audit_creation_date              2020-11-30 
_audit_creation_method            'lammps2cif' 
_symmetry_space_group_name_H-M    'P1' 
_symmetry_Int_Tables_number       1 
_symmetry_cell_setting            triclinic 
loop_ 
_symmetry_equiv_pos_as_xyz 
  x,y,z 
_cell_length_a                    37.39630876 
_cell_length_b                    17.51926744032462 
_cell_length_c                    43.50584936002787 
_cell_angle_alpha                 90.00107166526644 
_cell_angle_beta                  90.00060404020653 
_cell_angle_gamma                 90.00034879283086 
loop_ 
_atom_site_label 
_atom_site_type_symbol 
_atom_site_fract_x 
_atom_site_fract_y 
_atom_site_fract_z 
_atom_site_charge 
O1          O  0.13115697  0.41339516  0.03778869    -0.69600
O2          O  0.16454032  0.59090780  0.45405733    -0.69800
O3          O  0.12539629  0.56427149  0.03694719    -0.69700
O4          O  0.14614438  0.44589759  0.45559525    -0.69700
O5          O  0.09447065  0.47857659  0.47446794    -0.69700
O6          O  0.07491198  0.55411551  0.01242173    -0.69700
O7          O  0.11348071  0.62293902  0.47426841    -0.69600
O8          O  0.08103056  0.40312510  0.01272441    -0.69800
V9          V  0.14542403  0.49094403  0.00997945     1.35200
V10         V  0.11859961  0.54243736  0.50273892     1.35200
C11         C  0.10034472  0.38460802  0.03529227     0.79600
C12         C  0.13583885  0.62888770  0.45276234     0.79700
C13         C  0.09273650  0.58132815  0.03450027     0.79500
C14         C  0.11240967  0.44412482  0.45425256     0.79500
O15         O  0.21187457  0.90442432  0.47963384    -0.69600
O16         O  0.20867450  0.06498290  0.01303336    -0.69800
O17         O  0.22020190  0.05386046  0.47825372    -0.69700
O18         O  0.21450425  0.91451420  0.01439867    -0.69700
O19         O  0.00384049  0.91988652  0.03937199    -0.69700
O20         O  0.00604562  0.09215596  0.46442323    -0.69700
O21         O  0.01551964  0.06846816  0.04007365    -0.69600
O22         O  0.00370174  0.94073813  0.46329599    -0.69800
V23         V  0.23333249  0.97624558  0.50634992     1.35200
V24         V  0.01975409  0.01387734  0.49202539     1.35200
C25         C  0.23023293  0.87703549  0.45799956     0.79600
C26         C  0.22682198  0.09037243  0.03526531     0.79700
C27         C  0.24108026  0.06966293  0.45640842     0.79500
C28         C  0.23498252  0.89517411  0.03601787     0.78900
C29         C  0.97325113  0.25041552  0.25031562     0.32200
C30         C  0.14414094  0.24896143  0.24856605     0.32200
C31         C  0.95326905  0.21653851  0.27826458    -0.04000
C32         C  0.95303076  0.33073125  0.24816293    -0.04800
C33         C  0.95326317  0.20611558  0.22486325    -0.04700
C34         C  0.16473366  0.20988356  0.27547094    -0.04000
C35         C  0.16396978  0.33004092  0.24874776    -0.04800
C36         C  0.16425567  0.21090153  0.22108464    -0.04700
C37         C  0.15549425  0.17953138  0.30375326    -0.30100
N38         N  0.18600054  0.15984157  0.31879402     0.16400
C39         C  0.96411864  0.19859843  0.30745550    -0.30100
H40         H  0.99126430  0.19945741  0.31601940     0.18400
C41         C  0.15356925  0.40752127  0.24886357    -0.29100
N42         N  0.18300950  0.45488398  0.24887696     0.15100
C43         C  0.96314846  0.40822773  0.24791377    -0.29100
C44         C  0.15404911  0.18006257  0.19320842    -0.29400
N45         N  0.18377116  0.16582171  0.17633883     0.15600
H46         H  0.12702873  0.17252650  0.18492418     0.18300
C47         C  0.96465570  0.17362529  0.19805714    -0.29400
H48         H  0.99209619  0.16736496  0.19064920     0.18300
H49         H  0.99046964  0.42842228  0.24838786     0.18300
H50         H  0.12888164  0.17673597  0.31345956     0.18300
H51         H  0.12618686  0.42733002  0.24883429     0.18300
C52         C  0.97275227  0.74304352  0.25046985     0.32200
C53         C  0.14394077  0.74374567  0.24561909     0.32200
C54         C  0.95143295  0.78576080  0.22505898    -0.04000
C55         C  0.95257664  0.66246177  0.24928310    -0.04800
C56         C  0.95356114  0.77774121  0.27877046    -0.04700
C57         C  0.16511598  0.78041512  0.21853680    -0.04000
C58         C  0.16379311  0.66265019  0.24699571    -0.04800
C59         C  0.16348889  0.78431743  0.27268625    -0.04700
C60         C  0.15636793  0.80673339  0.18962840    -0.30100
N61         N  0.18702033  0.81927054  0.17382915     0.16400
C62         C  0.96087897  0.81837582  0.19751046    -0.30100
H63         H  0.98771382  0.82503528  0.18865870     0.18400
C64         C  0.15348054  0.58509216  0.24742037    -0.29100
N65         N  0.18294545  0.53787043  0.24856206     0.15100
C66         C  0.96288092  0.58515172  0.24805631    -0.29100
C67         C  0.15265120  0.81122446  0.30100544    -0.29400
N68         N  0.18206215  0.82676602  0.31803809     0.15600
H69         H  0.12556110  0.81249974  0.30970594     0.18300
C70         C  0.96526911  0.80259380  0.30690947    -0.29400
H71         H  0.99274107  0.80783967  0.31436735     0.18300
H72         H  0.99024590  0.56532782  0.24723024     0.18300
H73         H  0.12988702  0.81192559  0.17994176     0.18300
H74         H  0.12612469  0.56512442  0.24676038     0.18300
C75         C  0.01911095  0.74985676  0.24930722     0.32200
C76         C  0.09776301  0.75061341  0.24567183     0.32200
C77         C  0.03778117  0.71842639  0.21976230    -0.04000
C78         C  0.03915507  0.83044007  0.25126658    -0.04800
C79         C  0.04124120  0.70488399  0.27404789    -0.04700
C80         C  0.07611991  0.71851112  0.21817072    -0.04000
C81         C  0.07766659  0.83071754  0.24966158    -0.04800
C82         C  0.07942069  0.70447441  0.27125094    -0.04700
C83         C  0.08506506  0.69358835  0.18925029    -0.30100
N84         N  0.05468765  0.68165003  0.17309883     0.16400
C85         C  0.02591841  0.69438913  0.19130597    -0.30100
H86         H  0.99843748  0.68955687  0.18382938     0.18400
C87         C  0.08784497  0.90813872  0.25040297    -0.29100
N88         N  0.05835503  0.95500612  0.25229566     0.15100
C89         C  0.02886765  0.90781389  0.25283063    -0.29100
C90         C  0.09322761  0.67531347  0.29768881    -0.29400
N91         N  0.06647430  0.66362451  0.31769759     0.15600
H92         H  0.12127392  0.67248288  0.30366600     0.18300
C93         C  0.03474559  0.68025274  0.30392627    -0.29400
H94         H  0.00932853  0.68077067  0.31570983     0.18300
H95         H  0.00152677  0.92769804  0.25375389     0.18300
H96         H  0.11171727  0.68705732  0.18001375     0.18300
H97         H  0.11513536  0.92830572  0.24896616     0.18300
C98         C  0.09802482  0.24228277  0.24887549     0.32200
C99         C  0.01938961  0.24350511  0.24989696     0.32200
C100        C  0.07751681  0.27679938  0.22113652    -0.04000
C101        C  0.07779808  0.16214877  0.25129085    -0.04800
C102        C  0.07851389  0.28588911  0.27475590    -0.04700
C103        C  0.03917470  0.27686277  0.22137449    -0.04000
C104        C  0.03925780  0.16261010  0.25186006    -0.04800
C105        C  0.04025676  0.28709423  0.27539020    -0.04700
C106        C  0.02864616  0.29806194  0.19216955    -0.30100
N107        N  0.05825079  0.30923271  0.17483223     0.16400
C108        C  0.08777494  0.29942412  0.19226407    -0.30100
H109        H  0.11481761  0.30366401  0.18369099     0.18400
C110        C  0.02889864  0.08519316  0.25266296    -0.29100
N111        N  0.05835362  0.03791856  0.25255883     0.15100
C112        C  0.08793710  0.08474048  0.25175931    -0.29100
C113        C  0.03086322  0.32719296  0.30145613    -0.29400
N114        N  0.06121506  0.34824500  0.31625581     0.15600
H115        H  0.00405705  0.33679750  0.30997884     0.18300
C116        C  0.09008555  0.32439322  0.30023490    -0.29400
H117        H  0.11755222  0.33060371  0.30769232     0.18300
H118        H  0.11524117  0.06459282  0.25105389     0.18300
H119        H  0.00159662  0.30028829  0.18344906     0.18300
H120        H  0.00150444  0.06533995  0.25273392     0.18300
C121        C  0.21292468  0.84047728  0.43274900    -0.16400
C122        C  0.19945235  0.82832945  0.40815634     0.07700
C123        C  0.18779185  0.82813747  0.37742831     0.09600
C124        C  0.18288993  0.83012379  0.35012850    -0.17200
C125        C  0.22161316  0.85013252  0.06064786    -0.16400
C126        C  0.20918835  0.83043727  0.08476135     0.07700
C127        C  0.19659805  0.82412799  0.11497859     0.09600
C128        C  0.18995049  0.82367569  0.14193993    -0.17200
C129        C  0.22771052  0.10931353  0.43004641    -0.16400
C130        C  0.21394831  0.12618769  0.40595194     0.07700
C131        C  0.19861713  0.13588994  0.37658190     0.09600
C132        C  0.18976238  0.14446794  0.35018912    -0.17200
C133        C  0.20973726  0.12745988  0.06068710    -0.16400
C134        C  0.19788218  0.14268147  0.08571088     0.07700
C135        C  0.18837956  0.14974172  0.11699290     0.09600
C136        C  0.18452995  0.15482075  0.14443359    -0.17200
C137        C  0.12473950  0.66456843  0.42481685    -0.16400
C138        C  0.10835369  0.67320539  0.40123804     0.07700
C139        C  0.08753497  0.66890153  0.37422827     0.09600
C140        C  0.07394292  0.66361900  0.34920823    -0.17200
C141        C  0.05388889  0.67042437  0.14121938    -0.16400
C142        C  0.05642024  0.66189558  0.11382212     0.07700
C143        C  0.06459628  0.64675700  0.08277220     0.09600
C144        C  0.07572526  0.62394190  0.05847823    -0.17200
C145        C  0.09480926  0.41248543  0.42804128    -0.16400
C146        C  0.08146712  0.39868402  0.40351197     0.07700
C147        C  0.06932596  0.38729983  0.37325374     0.09600
C148        C  0.06340448  0.37292359  0.34672608    -0.17200
C149        C  0.08597579  0.34002067  0.05988705    -0.16400
C150        C  0.07435556  0.31989326  0.08436219     0.07700
C151        C  0.06389331  0.31220476  0.11530273     0.09600
C152        C  0.05926752  0.31167713  0.14268520    -0.17200
O153        O  0.17370242  0.43296931  0.51340876    -0.69600
O154        O  0.16171887  0.56838420  0.98294031    -0.69800
O155        O  0.19239099  0.57798604  0.51242010    -0.69700
O156        O  0.16762326  0.41861442  0.98379436    -0.69700
O157        O  0.11745686  0.40947088  0.95871776    -0.69700
O158        O  0.14050737  0.60753022  0.53168620    -0.69700
O159        O  0.11125776  0.55925417  0.95830202    -0.69600
O160        O  0.12156973  0.46293177  0.53207257    -0.69800
V161        V  0.16829238  0.51266707  0.48421982     1.35200
V162        V  0.09710431  0.48164414  0.98606250     1.35200
C163        C  0.15005121  0.42463272  0.53384004     0.79600
C164        C  0.14252380  0.58595549  0.96017081     0.79700
C165        C  0.17412792  0.61002029  0.53318441     0.79500
C166        C  0.15033024  0.39400665  0.96097083     0.79500
O167        O  0.24871759  0.91611932  0.96000874    -0.69600
O168        O  0.25262194  0.04860313  0.53404536    -0.69800
O169        O  0.24318808  0.06648903  0.95778313    -0.69700
O170        O  0.24433356  0.89884537  0.53511123    -0.69700
O171        O  0.03548736  0.93560744  0.51873855    -0.69700
O172        O  0.04671986  0.05915163  0.98398707    -0.69700
O173        O  0.03810109  0.08608600  0.52015752    -0.69600
O174        O  0.03496143  0.91012709  0.98312572    -0.69800
V175        V  0.22977487  0.99100449  0.98674277     1.35200
V176        V  0.02425741  0.98972672  0.01118299     1.35200
C177        C  0.28145608  0.89934619  0.96178953     0.79600
C178        C  0.28577021  0.06179138  0.53372520     0.79700
C179        C  0.27431303  0.09416361  0.95890338     0.79500
C180        C  0.27473026  0.86775621  0.53423582     0.78900
C181        C  0.10606067  0.25919509  0.75116461     0.32200
C182        C  0.27683432  0.26017753  0.74578595     0.32200
C183        C  0.08681572  0.22291407  0.77915139    -0.04000
C184        C  0.08569416  0.33936236  0.75031510    -0.04800
C185        C  0.08533165  0.21716264  0.72541337    -0.04700
C186        C  0.29705727  0.21924433  0.77219966    -0.04000
C187        C  0.29687370  0.34095029  0.74676564    -0.04800
C188        C  0.29698700  0.22358862  0.71818276    -0.04700
C189        C  0.28630350  0.18922718  0.79983492    -0.30100
N190        N  0.31556417  0.17402156  0.81701392     0.16400
C191        C  0.09819027  0.19276622  0.80661125    -0.30100
H192        H  0.12553163  0.18770277  0.81447088     0.18400
C193        C  0.28665950  0.41841909  0.74748923    -0.29100
N194        N  0.31619962  0.46546018  0.74779998     0.15100
C195        C  0.09580831  0.41674885  0.74959814    -0.29100
C196        C  0.28676450  0.19256315  0.69044895    -0.29400
N197        N  0.31654000  0.17532862  0.67405579     0.15600
H198        H  0.25967237  0.18585110  0.68216000     0.18300
C199        C  0.09517339  0.18253275  0.69837866    -0.29400
H200        H  0.12195735  0.17852290  0.68911227     0.18300
H201        H  0.12312721  0.43695706  0.74913738     0.18300
H202        H  0.25907286  0.18445497  0.80799690     0.18300
H203        H  0.25930556  0.43844416  0.74761649     0.18300
C204        C  0.10524519  0.75172758  0.74943113     0.32200
C205        C  0.27671421  0.75319690  0.74984029     0.32200
C206        C  0.08509715  0.79014008  0.72213000    -0.04000
C207        C  0.08531150  0.67086202  0.74911890    -0.04800
C208        C  0.08432539  0.78965914  0.77674452    -0.04700
C209        C  0.29610276  0.79329784  0.72276419    -0.04000
C210        C  0.29689604  0.67276074  0.74904158    -0.04800
C211        C  0.29753029  0.79122328  0.77657975    -0.04700
C212        C  0.28463741  0.81580831  0.69423512    -0.30100
N213        N  0.31343747  0.82701064  0.67608023     0.16400
C214        C  0.09509568  0.81332400  0.69302147    -0.30100
H215        H  0.12191713  0.81434896  0.68376222     0.18400
C216        C  0.28668712  0.59534101  0.74899709    -0.29100
N217        N  0.31621649  0.54837793  0.74824542     0.15100
C218        C  0.09563675  0.59350716  0.74945851    -0.29100
C219        C  0.28784473  0.81503497  0.80543587    -0.29400
N220        N  0.31786015  0.82841078  0.82190299     0.15600
H221        H  0.26104800  0.81654419  0.81474612     0.18300
C222        C  0.09295193  0.80858506  0.80682523    -0.29400
H223        H  0.11932395  0.80852969  0.81696648     0.18300
H224        H  0.12301158  0.57366704  0.74988973     0.18300
H225        H  0.25731357  0.81617166  0.68612512     0.18300
H226        H  0.25934910  0.57529374  0.74950404     0.18300
C227        C  0.15164599  0.75901646  0.74927776     0.32200
C228        C  0.23049242  0.75953134  0.75022249     0.32200
C229        C  0.17246443  0.71941618  0.72260932    -0.04000
C230        C  0.17174114  0.83997720  0.74918921    -0.04800
C231        C  0.17158673  0.72077013  0.77649826    -0.04700
C232        C  0.21078091  0.71940287  0.72335804    -0.04000
C233        C  0.21032962  0.84006452  0.74951313    -0.04800
C234        C  0.20992142  0.72142157  0.77724385    -0.04700
C235        C  0.22218472  0.68543971  0.69667151    -0.30100
N236        N  0.19330624  0.66782464  0.67944146     0.16400
C237        C  0.16305139  0.68638401  0.69497328    -0.30100
H238        H  0.13626963  0.68062190  0.68587813     0.18400
C239        C  0.22065182  0.91745687  0.74921625    -0.29100
N240        N  0.19121347  0.96463967  0.74880438     0.15100
C241        C  0.16160471  0.91761462  0.74878522    -0.29100
C242        C  0.21964600  0.68919284  0.80493995    -0.29400
N243        N  0.18950766  0.67025763  0.82047463     0.15600
H244        H  0.24647716  0.68362420  0.81394276     0.18300
C245        C  0.16049179  0.68673447  0.80320119    -0.29400
H246        H  0.13313916  0.67835177  0.81053085     0.18300
H247        H  0.13429297  0.93774198  0.74846036     0.18300
H248        H  0.24959914  0.67885157  0.68918675     0.18300
H249        H  0.24804747  0.93734957  0.74942304     0.18300
C250        C  0.23068919  0.25317924  0.74675152     0.32200
C251        C  0.15214348  0.25271495  0.74988698     0.32200
C252        C  0.20894831  0.29124806  0.72026041    -0.04000
C253        C  0.21072554  0.17223425  0.74777596    -0.04800
C254        C  0.21186643  0.29239129  0.77448599    -0.04700
C255        C  0.17068309  0.29107778  0.72213751    -0.04000
C256        C  0.17222908  0.17216261  0.74927974    -0.04800
C257        C  0.17361057  0.29230821  0.77585782    -0.04700
C258        C  0.15802963  0.31896630  0.69483428    -0.30100
N259        N  0.18611506  0.33391927  0.67629231     0.16400
C260        C  0.21711849  0.31845615  0.69129333    -0.30100
H261        H  0.24343644  0.32199039  0.68108806     0.18400
C262        C  0.16191889  0.09479885  0.74970481    -0.29100
N263        N  0.19132877  0.04761128  0.74861677     0.15100
C264        C  0.22089539  0.09464161  0.74743335    -0.29100
C265        C  0.16445145  0.32103564  0.80411696    -0.29400
N266        N  0.19470649  0.33634466  0.82000092     0.15600
H267        H  0.13774858  0.32478149  0.81354934     0.18300
C268        C  0.22358300  0.32082046  0.80228882    -0.29400
H269        H  0.25100440  0.32439679  0.81006053     0.18300
H270        H  0.24818452  0.07454851  0.74631765     0.18300
H271        H  0.13027896  0.32261652  0.68793399     0.18300
H272        H  0.13455107  0.07492685  0.75080126     0.18300
C273        C  0.29777731  0.85688672  0.93770691    -0.16400
C274        C  0.30869843  0.83837703  0.91289997     0.07700
C275        C  0.31634039  0.83239917  0.88145270     0.09600
C276        C  0.31843198  0.83208283  0.85393317    -0.17200
C277        C  0.28705674  0.82564566  0.56014280    -0.16400
C278        C  0.29737774  0.81230752  0.58569895     0.07700
C279        C  0.30685861  0.81546080  0.61690245     0.09600
C280        C  0.31147179  0.82299976  0.64406076    -0.17200
C281        C  0.28849104  0.13301308  0.93260808    -0.16400
C282        C  0.29946178  0.14899751  0.90736157     0.07700
C283        C  0.30933797  0.15682509  0.87619022     0.09600
C284        C  0.31404220  0.16260332  0.84887123    -0.17200
C285        C  0.30167188  0.10067197  0.55929605    -0.16400
C286        C  0.31044428  0.12196912  0.58454301     0.07700
C287        C  0.31560497  0.13981038  0.61588335     0.09600
C288        C  0.31677227  0.15473428  0.64292175    -0.17200
C289        C  0.15766753  0.62525771  0.93449774    -0.16400
C290        C  0.17003276  0.64108167  0.90977045     0.07700
C291        C  0.18158939  0.64887893  0.87911286     0.09600
C292        C  0.18732756  0.65587548  0.85204124    -0.17200
C293        C  0.19516585  0.65420134  0.64776147    -0.16400
C294        C  0.19704331  0.64902571  0.62019110     0.07700
C295        C  0.19638884  0.64620694  0.58778854     0.09600
C296        C  0.19025006  0.63763763  0.56083476    -0.17200
C297        C  0.16862677  0.36011376  0.93555442    -0.16400
C298        C  0.18162305  0.34916239  0.91063588     0.07700
C299        C  0.19179195  0.34705855  0.87946718     0.09600
C300        C  0.19523927  0.34494294  0.85197314    -0.17200
C301        C  0.15764768  0.38202060  0.56108888    -0.16400
C302        C  0.16609835  0.36321012  0.58668740     0.07700
C303        C  0.17605734  0.35297318  0.61766233     0.09600
C304        C  0.18238173  0.34594502  0.64465288    -0.17200
O305        O  0.38815871  0.40171753  0.03561948    -0.69600
O306        O  0.36607360  0.60221106  0.46106679    -0.69800
O307        O  0.38805780  0.55236027  0.03793467    -0.69700
O308        O  0.36433502  0.45129161  0.46041377    -0.69700
O309        O  0.31409173  0.45255651  0.48562147    -0.69700
O310        O  0.33571155  0.55791586  0.01619818    -0.69700
O311        O  0.31566670  0.60396252  0.48608499    -0.69600
O312        O  0.33442777  0.40724220  0.01652573    -0.69800
V313        V  0.40202826  0.47976000  0.00795901     1.35200
V314        V  0.33442812  0.52729793  0.51226125     1.35200
C315        C  0.35572147  0.38208076  0.03660097     0.79600
C316        C  0.33445687  0.62628409  0.46377121     0.79700
C317        C  0.35623538  0.57636007  0.03797494     0.79500
C318        C  0.33229062  0.42976790  0.46291971     0.79500
O319        O  0.44846554  0.93437595  0.48522781    -0.69600
O320        O  0.44569388  0.06509792  0.01318864    -0.69800
O321        O  0.46239901  0.08224571  0.48348674    -0.69700
O322        O  0.44553609  0.91468704  0.01450683    -0.69700
O323        O  0.26595715  0.92351825  0.03752466    -0.69700
O324        O  0.27207063  0.04097567  0.45619383    -0.69700
O325        O  0.25964461  0.07404012  0.03687171    -0.69600
O326        O  0.26331006  0.89131078  0.45682860    -0.69800
V327        V  0.47397576  0.00233196  0.51106753     1.35200
V328        V  0.28299358  0.96271979  0.48491458     1.35200
C329        C  0.46474891  0.90444096  0.46290093     0.79600
C330        C  0.46624910  0.08686566  0.03450749     0.79700
C331        C  0.48316584  0.09572699  0.46130972     0.79500
C332        C  0.46627051  0.89429831  0.03587285     0.78900
C333        C  0.22270637  0.24987510  0.24798532     0.32200
C334        C  0.39360867  0.25004603  0.25105452     0.32200
C335        C  0.20295780  0.20935100  0.27452507    -0.04000
C336        C  0.20249614  0.33041900  0.24865426    -0.04800
C337        C  0.20256522  0.21194597  0.22089143    -0.04700
C338        C  0.41446564  0.20949318  0.27738294    -0.04000
C339        C  0.41349013  0.33108899  0.25177257    -0.04800
C340        C  0.41354214  0.21361122  0.22312675    -0.04700
C341        C  0.40537118  0.18458491  0.30645897    -0.30100
N342        N  0.43584664  0.17034845  0.32232597     0.16400
C343        C  0.21458065  0.17572091  0.30102410    -0.30100
H344        H  0.24210871  0.16850232  0.30810920     0.18400
C345        C  0.40317763  0.40853312  0.25259778    -0.29100
N346        N  0.43267796  0.45578244  0.25264031     0.15100
C347        C  0.21259513  0.40797530  0.24879775    -0.29100
C348        C  0.40296118  0.18428570  0.19507651    -0.29400
N349        N  0.43248588  0.16990340  0.17794875     0.15600
H350        H  0.37579360  0.17815264  0.18690630     0.18300
C351        C  0.21318949  0.18280413  0.19306860    -0.29400
H352        H  0.24034111  0.17868230  0.18466871     0.18300
H353        H  0.23992716  0.42814272  0.24861730     0.18300
H354        H  0.37882813  0.18275561  0.31625798     0.18300
H355        H  0.37580498  0.42838464  0.25303744     0.18300
C356        C  0.22248756  0.74275380  0.24738183     0.32200
C357        C  0.39300887  0.74310388  0.25116021     0.32200
C358        C  0.20342065  0.77958774  0.21969735    -0.04000
C359        C  0.20228441  0.66233573  0.24794557    -0.04800
C360        C  0.20175688  0.78448232  0.27322180    -0.04700
C361        C  0.41384026  0.78049728  0.22427131    -0.04000
C362        C  0.41330849  0.66293414  0.25246642    -0.04800
C363        C  0.41204044  0.78410783  0.27803158    -0.04700
C364        C  0.40404773  0.80927434  0.19611405    -0.30100
N365        N  0.43407384  0.82613292  0.18015565     0.16400
C366        C  0.21550615  0.80530359  0.19195647    -0.30100
H367        H  0.24304678  0.80779559  0.18443103     0.18400
C368        C  0.40312511  0.58554155  0.25234850    -0.29100
N369        N  0.43266528  0.53869907  0.25301186     0.15100
C370        C  0.21247069  0.58490558  0.24890478    -0.29100
C371        C  0.40009868  0.81688367  0.30476000    -0.29400
N372        N  0.42877021  0.83574763  0.32199706     0.15600
H373        H  0.37261772  0.82182558  0.31224613     0.18300
C374        C  0.21175329  0.81342423  0.30119826    -0.29400
H375        H  0.23873161  0.81763375  0.30997725     0.18300
H376        H  0.23980549  0.56490604  0.24966582     0.18300
H377        H  0.37719417  0.81280919  0.18697407     0.18300
H378        H  0.37580113  0.56542138  0.25151911     0.18300
C379        C  0.26848657  0.74922055  0.24806599     0.32200
C380        C  0.34695346  0.74950037  0.25022612     0.32200
C381        C  0.28964157  0.70895687  0.22188426    -0.04000
C382        C  0.28848108  0.83007889  0.24803421    -0.04800
C383        C  0.28754016  0.71146670  0.27579210    -0.04700
C384        C  0.32789115  0.70918734  0.22313840    -0.04000
C385        C  0.32696015  0.83011766  0.24902486    -0.04800
C386        C  0.32581847  0.71179065  0.27695501    -0.04700
C387        C  0.33975936  0.67651745  0.19641475    -0.30100
N388        N  0.31112925  0.65854795  0.17889573     0.16400
C389        C  0.28060659  0.67624111  0.19411383    -0.30100
H390        H  0.25397939  0.67046831  0.18468240     0.18400
C391        C  0.33726489  0.90752373  0.24906018    -0.29100
N392        N  0.30782035  0.95469488  0.24818793     0.15100
C393        C  0.27826675  0.90762305  0.24755577    -0.29100
C394        C  0.33493889  0.68837420  0.30605937    -0.29400
N395        N  0.30459980  0.67567335  0.32222417     0.15600
H396        H  0.36153657  0.68746660  0.31580187     0.18300
C397        C  0.27583970  0.68698273  0.30403319    -0.29400
H398        H  0.24842945  0.68430042  0.31185233     0.18300
H399        H  0.25094118  0.92765536  0.24691145     0.18300
H400        H  0.36730493  0.67129482  0.18909953     0.18300
H401        H  0.36463693  0.92742368  0.24982804     0.18300
C402        C  0.34737227  0.24303344  0.25105129     0.32200
C403        C  0.26877060  0.24299893  0.24868832     0.32200
C404        C  0.32819362  0.28485438  0.22435546    -0.04000
C405        C  0.32732444  0.16225160  0.24924912    -0.04800
C406        C  0.32609552  0.27897358  0.27822873    -0.04700
C407        C  0.28994053  0.28432469  0.22286181    -0.04000
C408        C  0.28880136  0.16230318  0.24817165    -0.04800
C409        C  0.28779092  0.27899642  0.27696374    -0.04700
C410        C  0.28117296  0.30947405  0.19378107    -0.30100
N411        N  0.31175566  0.32483561  0.17828742     0.16400
C412        C  0.34016149  0.31253584  0.19676026    -0.30100
H413        H  0.36770272  0.31641120  0.18937640     0.18400
C414        C  0.27847126  0.08489572  0.24755051    -0.29100
N415        N  0.30790588  0.03766695  0.24819536     0.15100
C416        C  0.33747529  0.08466403  0.24922898    -0.29100
C417        C  0.27593165  0.30698730  0.30473117    -0.29400
N418        N  0.30464457  0.32192015  0.32264941     0.15600
H419        H  0.24841955  0.31219617  0.31212556     0.18300
C420        C  0.33508636  0.30690917  0.30682256    -0.29400
H421        H  0.36177224  0.31255511  0.31612351     0.18300
H422        H  0.36477259  0.06454350  0.25019011     0.18300
H423        H  0.25479037  0.31023335  0.18363541     0.18300
H424        H  0.25108584  0.06503678  0.24690608     0.18300
C425        C  0.44554932  0.87007275  0.43825083    -0.16400
C426        C  0.43430069  0.85675903  0.41298394     0.07700
C427        C  0.42797363  0.85189088  0.38124602     0.09600
C428        C  0.42728024  0.84755184  0.35370698    -0.17200
C429        C  0.45267908  0.85850224  0.06291342    -0.16400
C430        C  0.44404719  0.84587170  0.08903677     0.07700
C431        C  0.43777450  0.84159340  0.12087175     0.09600
C432        C  0.43522010  0.83728718  0.14836515    -0.17200
C433        C  0.47107613  0.14004575  0.43587425    -0.16400
C434        C  0.45891980  0.15830544  0.41140553     0.07700
C435        C  0.44592301  0.16413763  0.38119009     0.09600
C436        C  0.43883361  0.16523845  0.35425670    -0.17200
C437        C  0.45240597  0.12497966  0.06116584    -0.16400
C438        C  0.44307046  0.14102112  0.08692305     0.07700
C439        C  0.43571513  0.14998391  0.11861291     0.09600
C440        C  0.43282730  0.15711698  0.14610327    -0.17200
C441        C  0.31899860  0.66854359  0.43923138    -0.16400
C442        C  0.30936335  0.68316621  0.41362562     0.07700
C443        C  0.30375272  0.68208711  0.38176816     0.09600
C444        C  0.30312587  0.67681882  0.35426973    -0.17200
C445        C  0.31376094  0.64436408  0.14735284    -0.16400
C446        C  0.31954112  0.63734781  0.12029978     0.07700
C447        C  0.33068275  0.62949887  0.08954730     0.09600
C448        C  0.34229341  0.61408451  0.06451700    -0.17200
C449        C  0.31646196  0.38724016  0.43827134    -0.16400
C450        C  0.30784794  0.36445941  0.41319626     0.07700
C451        C  0.30333243  0.34811578  0.38164516     0.09600
C452        C  0.30310084  0.33702301  0.35428119    -0.17200
C453        C  0.34235062  0.34219546  0.06278290    -0.16400
C454        C  0.33142200  0.32801070  0.08812335     0.07700
C455        C  0.32080618  0.32641394  0.11913516     0.09600
C456        C  0.31490282  0.32797005  0.14629868    -0.17200
O457        O  0.40132568  0.44853759  0.51401641    -0.69600
O458        O  0.41811772  0.55751216  0.98089924    -0.69800
O459        O  0.40309366  0.59910888  0.51433634    -0.69700
O460        O  0.41789280  0.40697432  0.97890347    -0.69700
O461        O  0.36415780  0.40516441  0.95967668    -0.69700
O462        O  0.35289192  0.60202780  0.53960841    -0.69700
O463        O  0.36573985  0.55588032  0.95913735    -0.69600
O464        O  0.35135338  0.45118617  0.53962207    -0.69800
V465        V  0.38264217  0.52525190  0.48790215     1.35200
V466        V  0.35102449  0.48158808  0.98826698     1.35200
C467        C  0.38319466  0.42810113  0.53701900     0.79600
C468        C  0.39778961  0.57860145  0.95935415     0.79700
C469        C  0.38516365  0.62238923  0.53699783     0.79500
C470        C  0.39643410  0.38446152  0.95849089     0.79500
O471        O  0.47652197  0.91083921  0.95776762    -0.69600
O472        O  0.49737266  0.07149115  0.53764433    -0.69800
O473        O  0.47677926  0.06150450  0.95616759    -0.69700
O474        O  0.48373684  0.92309818  0.53958889    -0.69700
O475        O  0.29575461  0.88355735  0.51248974    -0.69700
O476        O  0.29406082  0.07837870  0.98157387    -0.69700
O477        O  0.30463210  0.03351101  0.51247736    -0.69600
O478        O  0.30015040  0.92796016  0.98295596    -0.69800
V479        V  0.46212510  0.98811339  0.98576273     1.35200
V480        V  0.27894166  0.00104940  0.00931410     1.35200
C481        C  0.50876530  0.88937278  0.95788905     0.79600
C482        C  0.53080569  0.07949715  0.53568509     0.79700
C483        C  0.50904662  0.08287698  0.95587075     0.79500
C484        C  0.51271698  0.88654612  0.53725250     0.78900
C485        C  0.35542029  0.26021657  0.74573271     0.32200
C486        C  0.52620958  0.25986010  0.74505549     0.32200
C487        C  0.33532802  0.21949069  0.77242836    -0.04000
C488        C  0.33541715  0.34095598  0.74666539    -0.04800
C489        C  0.33528437  0.22361681  0.71825747    -0.04700
C490        C  0.54518048  0.21891156  0.77201372    -0.04000
C491        C  0.54662614  0.33978418  0.74639025    -0.04800
C492        C  0.54707792  0.22229081  0.71828365    -0.04700
C493        C  0.53290179  0.18677936  0.79866298    -0.30100
N494        N  0.56118048  0.16917748  0.81658727     0.16400
C495        C  0.34544107  0.19073761  0.80068596    -0.30100
H496        H  0.37237284  0.18747687  0.80965374     0.18400
C497        C  0.53645461  0.41708890  0.74710761    -0.29100
N498        N  0.56599933  0.46381207  0.74837233     0.15100
C499        C  0.34570668  0.41837733  0.74731611    -0.29100
C500        C  0.53734089  0.19271331  0.69029900    -0.29400
N501        N  0.56739310  0.17377864  0.67473360     0.15600
H502        H  0.51050701  0.18919022  0.68110549     0.18300
C503        C  0.34600552  0.19260871  0.69070371    -0.29400
H504        H  0.37322330  0.18618800  0.68266917     0.18300
H505        H  0.37306701  0.43834007  0.74734324     0.18300
H506        H  0.50524214  0.18149473  0.80564147     0.18300
H507        H  0.50913207  0.43722876  0.74673899     0.18300
C508        C  0.35540885  0.75380300  0.74824181     0.32200
C509        C  0.52652573  0.75206978  0.74753314     0.32200
C510        C  0.33445734  0.79358527  0.72182306    -0.04000
C511        C  0.33541264  0.67298121  0.74829339    -0.04800
C512        C  0.33588352  0.79174553  0.77579863    -0.04700
C513        C  0.54734719  0.78804266  0.72048329    -0.04000
C514        C  0.54654716  0.67124302  0.74927172    -0.04800
C515        C  0.54599124  0.79419696  0.77375778    -0.04700
C516        C  0.53679277  0.81106150  0.69192941    -0.30100
N517        N  0.56591037  0.81744245  0.67389855     0.16400
C518        C  0.34369757  0.81608531  0.69253380    -0.30100
H519        H  0.37031899  0.81751380  0.68289536     0.18400
C520        C  0.53636870  0.59374659  0.74878706    -0.29100
N521        N  0.56591524  0.54668076  0.74931475     0.15100
C522        C  0.34570891  0.59554558  0.74785589    -0.29100
C523        C  0.53415107  0.82460841  0.80080826    -0.29400
N524        N  0.56265048  0.83925213  0.81885155     0.15600
H525        H  0.50662594  0.82823713  0.80830381     0.18300
C526        C  0.34702085  0.81667629  0.80419106    -0.29400
H527        H  0.37426931  0.82015899  0.81235829     0.18300
H528        H  0.37307356  0.57563735  0.74725919     0.18300
H529        H  0.50958791  0.81668698  0.68385603     0.18300
H530        H  0.50903955  0.57374918  0.74762890     0.18300
C531        C  0.40159942  0.76019461  0.74767955     0.32200
C532        C  0.48030082  0.75938236  0.74710310     0.32200
C533        C  0.42130974  0.71876321  0.72118276    -0.04000
C534        C  0.42181202  0.84066844  0.74645275    -0.04800
C535        C  0.42194949  0.72319823  0.77488318    -0.04700
C536        C  0.45967103  0.71847493  0.72056187    -0.04000
C537        C  0.46036488  0.84041934  0.74615717    -0.04800
C538        C  0.46021410  0.72326632  0.77489688    -0.04700
C539        C  0.46903928  0.69299537  0.69156775    -0.30100
N540        N  0.43881885  0.67977446  0.67523584     0.16400
C541        C  0.40999157  0.69236049  0.69318310    -0.30100
H542        H  0.38263955  0.68878696  0.68529068     0.18400
C543        C  0.47062286  0.91796741  0.74525108    -0.29100
N544        N  0.44110769  0.96514546  0.74503135     0.15100
C545        C  0.41158762  0.91810633  0.74571617    -0.29100
C546        C  0.47051895  0.69346362  0.80294156    -0.29400
N547        N  0.44071837  0.67631172  0.81929475     0.15600
H548        H  0.49756148  0.68824322  0.81151943     0.18300
C549        C  0.41136699  0.69179633  0.80229561    -0.29400
H550        H  0.38416593  0.68434508  0.81019086     0.18300
H551        H  0.38424083  0.93810997  0.74583669     0.18300
H552        H  0.49569206  0.68957536  0.68210313     0.18300
H553        H  0.49798918  0.93794499  0.74493445     0.18300
C554        C  0.48004725  0.25366690  0.74456084     0.32200
C555        C  0.40145310  0.25320792  0.74517652     0.32200
C556        C  0.45948842  0.29266307  0.71756717    -0.04000
C557        C  0.46011193  0.17281743  0.74451974    -0.04800
C558        C  0.45994323  0.29213112  0.77182821    -0.04700
C559        C  0.42116232  0.29268687  0.71828491    -0.04000
C560        C  0.42159041  0.17259032  0.74482847    -0.04800
C561        C  0.42167846  0.29217623  0.77176218    -0.04700
C562        C  0.40970411  0.32517806  0.69146123    -0.30100
N563        N  0.43854313  0.34221037  0.67409361     0.16400
C564        C  0.46891442  0.32392099  0.68954884    -0.30100
H565        H  0.49565699  0.32854168  0.68025116     0.18400
C566        C  0.41145145  0.09506721  0.74487088    -0.29100
N567        N  0.44102411  0.04811631  0.74464315     0.15100
C568        C  0.47048046  0.09539775  0.74438656    -0.29100
C569        C  0.41085269  0.32098237  0.79941655    -0.29400
N570        N  0.44010306  0.33537183  0.81662132     0.15600
H571        H  0.38362032  0.32451338  0.80768839     0.18300
C572        C  0.47002701  0.31972210  0.80021897    -0.29400
H573        H  0.49691714  0.32204839  0.80932288     0.18300
H574        H  0.49785729  0.07557917  0.74423073     0.18300
H575        H  0.38223739  0.33101253  0.68398669     0.18300
H576        H  0.38410927  0.07495352  0.74516676     0.18300
C577        C  0.52348828  0.85075738  0.93194305    -0.16400
C578        C  0.53735915  0.83891502  0.90748850     0.07700
C579        C  0.55162054  0.84010602  0.87758529     0.09600
C580        C  0.55931617  0.84283192  0.85078794    -0.17200
C581        C  0.52523527  0.84072439  0.56215197    -0.16400
C582        C  0.53904904  0.82095324  0.58579475     0.07700
C583        C  0.55453974  0.81515560  0.61518294     0.09600
C584        C  0.56301509  0.81692483  0.64185092    -0.17200
C585        C  0.52365148  0.11983411  0.92931883    -0.16400
C586        C  0.53665696  0.13573492  0.90479935     0.07700
C587        C  0.55003584  0.14529676  0.87471819     0.09600
C588        C  0.55754894  0.15386215  0.84801301    -0.17200
C589        C  0.54950444  0.11735566  0.55980741    -0.16400
C590        C  0.56047876  0.13637755  0.58457275     0.07700
C591        C  0.56706845  0.14886293  0.61593850     0.09600
C592        C  0.56834166  0.15838892  0.64325368    -0.17200
C593        C  0.41200990  0.61868941  0.93335783    -0.16400
C594        C  0.42345374  0.63776524  0.90861546     0.07700
C595        C  0.43412429  0.65061104  0.87791223     0.09600
C596        C  0.43923902  0.66065861  0.85085318    -0.17200
C597        C  0.43644073  0.67735649  0.64313304    -0.16400
C598        C  0.43003064  0.67888465  0.61601541     0.07700
C599        C  0.41682239  0.67628864  0.58570540     0.09600
C600        C  0.40254410  0.66155296  0.56164423    -0.17200
C601        C  0.40971895  0.34714634  0.93178244    -0.16400
C602        C  0.42133767  0.33616640  0.90646422     0.07700
C603        C  0.43268769  0.33768394  0.87572937     0.09600
C604        C  0.43833591  0.33982369  0.84859041    -0.17200
C605        C  0.40011367  0.38954022  0.56205342    -0.16400
C606        C  0.41446701  0.37375452  0.58598315     0.07700
C607        C  0.42846622  0.36525522  0.61585610     0.09600
C608        C  0.43573351  0.35732097  0.64261632    -0.17200
O609        O  0.62330122  0.41727331  0.03652026    -0.69600
O610        O  0.63775070  0.60107289  0.46441809    -0.69800
O611        O  0.62724927  0.56701799  0.04009595    -0.69700
O612        O  0.63623950  0.45015366  0.45999896    -0.69700
O613        O  0.58428009  0.44810187  0.48250675    -0.69700
O614        O  0.57577645  0.57734177  0.01712812    -0.69700
O615        O  0.58564221  0.59901888  0.48668360    -0.69600
O616        O  0.57147853  0.42740290  0.01412672    -0.69800
V617        V  0.64107922  0.49435011  0.01024568     1.35200
V618        V  0.60227902  0.51827089  0.51187552     1.35200
C619        C  0.59049685  0.40078426  0.03555489     0.79600
C620        C  0.60597107  0.62496806  0.46605655     0.79700
C621        C  0.59577991  0.59286498  0.03964107     0.79500
C622        C  0.60404301  0.42861116  0.46035249     0.79500
O623        O  0.68773178  0.97199338  0.48806277    -0.69600
O624        O  0.71498640  0.02621692  0.02159071    -0.69800
O625        O  0.69890600  0.12070653  0.48899232    -0.69700
O626        O  0.72048117  0.87571268  0.02164206    -0.69700
O627        O  0.49849473  0.91535590  0.03524977    -0.69700
O628        O  0.51269160  0.06109535  0.45978478    -0.69700
O629        O  0.49847358  0.06554907  0.03421629    -0.69600
O630        O  0.49809103  0.91347552  0.46046422    -0.69800
V631        V  0.71158804  0.03940384  0.51575708     1.35200
V632        V  0.52180281  0.98053731  0.48771420     1.35200
C633        C  0.70528040  0.94531851  0.46564850     0.79600
C634        C  0.73463759  0.05443231  0.04224898     0.79700
C635        C  0.71933026  0.13576043  0.46670131     0.79500
C636        C  0.74078613  0.85885907  0.04369418     0.78900
C637        C  0.47231931  0.25135419  0.24993768     0.32200
C638        C  0.64377548  0.25277546  0.24973517     0.32200
C639        C  0.45281356  0.20978555  0.27643209    -0.04000
C640        C  0.45203114  0.33154679  0.25129574    -0.04800
C641        C  0.45185216  0.21452854  0.22267507    -0.04700
C642        C  0.66375926  0.21219728  0.27668538    -0.04000
C643        C  0.66388704  0.33346975  0.25082358    -0.04800
C644        C  0.66449242  0.21631216  0.22234160    -0.04700
C645        C  0.65342242  0.19215767  0.30608838    -0.30100
N646        N  0.68299723  0.18105145  0.32346325     0.16400
C647        C  0.46448941  0.18349500  0.30425400    -0.30100
H648        H  0.49194437  0.18104967  0.31200253     0.18400
C649        C  0.65354498  0.41086115  0.25154559    -0.29100
N650        N  0.68299672  0.45808015  0.25231564     0.15100
C651        C  0.46221805  0.40892942  0.25189006    -0.29100
C652        C  0.65490566  0.18735790  0.19396733    -0.29400
N653        N  0.68516263  0.17035398  0.17817672     0.15600
H654        H  0.62808979  0.18231268  0.18486964     0.18300
C655        C  0.46211869  0.18624437  0.19455230    -0.29400
H656        H  0.48918342  0.18213498  0.18593592     0.18300
H657        H  0.48955465  0.42904782  0.25157887     0.18300
H658        H  0.62648631  0.19217817  0.31506023     0.18300
H659        H  0.62616456  0.43070872  0.25147606     0.18300
C660        C  0.47175880  0.74473249  0.25299268     0.32200
C661        C  0.64333904  0.74634512  0.25335266     0.32200
C662        C  0.45214920  0.78138014  0.22517245    -0.04000
C663        C  0.45187824  0.66349688  0.25331914    -0.04800
C664        C  0.45035067  0.78519077  0.27905492    -0.04700
C665        C  0.66401765  0.78489013  0.22653367    -0.04000
C666        C  0.66346026  0.66558851  0.25375026    -0.04800
C667        C  0.66317278  0.78595892  0.28046740    -0.04700
C668        C  0.65470903  0.80741280  0.19724924    -0.30100
N669        N  0.68505998  0.82119667  0.18119597     0.16400
C670        C  0.46325054  0.81108321  0.19755064    -0.30100
H671        H  0.49059063  0.81645111  0.18971106     0.18400
C672        C  0.65329450  0.58803329  0.25318052    -0.29100
N673        N  0.68286469  0.54102348  0.25310512     0.15100
C674        C  0.46216415  0.58597125  0.25360397    -0.29100
C675        C  0.65206124  0.82356932  0.30654127    -0.29400
N676        N  0.68109915  0.84203111  0.32350566     0.15600
H677        H  0.62470859  0.83382844  0.31351072     0.18300
C678        C  0.45924190  0.81917614  0.30651885    -0.29400
H679        H  0.48588177  0.82701288  0.31563469     0.18300
H680        H  0.48952982  0.56607965  0.25401167     0.18300
H681        H  0.62817710  0.80689106  0.18739036     0.18300
H682        H  0.62595846  0.56794870  0.25264462     0.18300
C683        C  0.51813912  0.75236545  0.25342573     0.32200
C684        C  0.59703713  0.75284723  0.25311065     0.32200
C685        C  0.53846160  0.71080970  0.22702857    -0.04000
C686        C  0.53820528  0.83314643  0.25186703    -0.04800
C687        C  0.53864775  0.71709090  0.28128684    -0.04700
C688        C  0.57679911  0.71083817  0.22708061    -0.04000
C689        C  0.57679896  0.83323750  0.25174522    -0.04800
C690        C  0.57708345  0.71688120  0.28075091    -0.04700
C691        C  0.58743140  0.67988308  0.19961416    -0.30100
N692        N  0.55803463  0.66367627  0.18275341     0.16400
C693        C  0.52825200  0.68071617  0.19909460    -0.30100
H694        H  0.50128308  0.67696939  0.19024894     0.18400
C695        C  0.58708911  0.91053440  0.25072988    -0.29100
N696        N  0.55760581  0.95760561  0.25025275     0.15100
C697        C  0.52802861  0.91064608  0.25092473    -0.29100
C698        C  0.58827114  0.69844578  0.30978837    -0.29400
N699        N  0.55937223  0.69112953  0.32807140     0.15600
H700        H  0.61557232  0.69700582  0.31791040     0.18300
C701        C  0.52918895  0.70067676  0.31128256    -0.29400
H702        H  0.50253080  0.70095094  0.32083066     0.18300
H703        H  0.50068388  0.93074706  0.25092681     0.18300
H704        H  0.61460814  0.67506491  0.19133146     0.18300
H705        H  0.61445377  0.93044194  0.25053761     0.18300
C706        C  0.59736762  0.24579261  0.24937999     0.32200
C707        C  0.51852361  0.24538331  0.24984666     0.32200
C708        C  0.57682518  0.28531836  0.22268028    -0.04000
C709        C  0.57723577  0.16497594  0.24921607    -0.04800
C710        C  0.57725369  0.28407525  0.27648743    -0.04700
C711        C  0.53845990  0.28520103  0.22295319    -0.04000
C712        C  0.53865702  0.16493615  0.24936009    -0.04800
C713        C  0.53892827  0.28339564  0.27702044    -0.04700
C714        C  0.52763960  0.31573929  0.19536128    -0.30100
N715        N  0.55703192  0.33236064  0.17851197     0.16400
C716        C  0.58686361  0.31570794  0.19486246    -0.30100
H717        H  0.61385352  0.32002731  0.18609059     0.18400
C718        C  0.52829356  0.08764103  0.24956378    -0.29100
N719        N  0.55775084  0.04049356  0.24959758     0.15100
C720        C  0.58735085  0.08742052  0.24935280    -0.29100
C721        C  0.52900752  0.31427328  0.30493680    -0.29400
N722        N  0.55904061  0.33268296  0.32071845     0.15600
H723        H  0.50211525  0.31921156  0.31388161     0.18300
C724        C  0.58816976  0.31699120  0.30348274    -0.29400
H725        H  0.61547600  0.32509300  0.31100803     0.18300
H726        H  0.61468465  0.06726906  0.24945622     0.18300
H727        H  0.50044532  0.32025173  0.18708878     0.18300
H728        H  0.50091684  0.06780691  0.24989522     0.18300
C729        C  0.68809564  0.91196315  0.43941996    -0.16400
C730        C  0.68059262  0.89496138  0.41333436     0.07700
C731        C  0.67842333  0.88012296  0.38143868     0.09600
C732        C  0.67953058  0.86512766  0.35436994    -0.17200
C733        C  0.72650700  0.81915495  0.06945024    -0.16400
C734        C  0.71175292  0.80739095  0.09346201     0.07700
C735        C  0.69625123  0.81133294  0.12276770     0.09600
C736        C  0.68816485  0.81849314  0.14928974    -0.17200
C737        C  0.70631052  0.17651632  0.44048959    -0.16400
C738        C  0.69621328  0.18930563  0.41470573     0.07700
C739        C  0.68757454  0.18801745  0.38312558     0.09600
C740        C  0.68385534  0.18300286  0.35566924    -0.17200
C741        C  0.71915053  0.09730702  0.06694292    -0.16400
C742        C  0.70641831  0.12089209  0.09054526     0.07700
C743        C  0.69401022  0.13915730  0.12027295     0.09600
C744        C  0.68760474  0.15250751  0.14687457    -0.17200
C745        C  0.59180880  0.67177811  0.44214074    -0.16400
C746        C  0.57964083  0.69174652  0.41788086     0.07700
C747        C  0.56780186  0.69668146  0.38726206     0.09600
C748        C  0.56173080  0.69354655  0.36014027    -0.17200
C749        C  0.55909400  0.65254257  0.15093108    -0.16400
C750        C  0.56287966  0.64796980  0.12352693     0.07700
C751        C  0.57148367  0.64268304  0.09208678     0.09600
C752        C  0.58171752  0.62913500  0.06644716    -0.17200
C753        C  0.58926170  0.39037157  0.43425223    -0.16400
C754        C  0.57752729  0.37153823  0.40964477     0.07700
C755        C  0.56649250  0.35868497  0.37913078     0.09600
C756        C  0.56100362  0.34861488  0.35217899    -0.17200
C757        C  0.57449502  0.36383731  0.06136387    -0.16400
C758        C  0.56480035  0.35106760  0.08721582     0.07700
C759        C  0.55854033  0.34726776  0.11909445     0.09600
C760        C  0.55682516  0.34339202  0.14666933    -0.17200
O761        O  0.66890562  0.43887086  0.51557939    -0.69600
O762        O  0.66092124  0.57143123  0.98487171    -0.69800
O763        O  0.67029732  0.58962975  0.51958042    -0.69700
O764        O  0.65692763  0.42098225  0.98142309    -0.69700
O765        O  0.60526616  0.42954632  0.95863828    -0.69700
O766        O  0.61819620  0.58853918  0.54190831    -0.69700
O767        O  0.60950265  0.58023858  0.96171599    -0.69600
O768        O  0.61696749  0.43763405  0.53811359    -0.69800
V769        V  0.65227159  0.51981826  0.49030918     1.35200
V770        V  0.59151686  0.50342652  0.98825199     1.35200
C771        C  0.64880307  0.41391598  0.53660605     0.79600
C772        C  0.64204473  0.59888988  0.96354974     0.79700
C773        C  0.65039700  0.60991601  0.54145895     0.79500
C774        C  0.63675731  0.40359041  0.95931403     0.79500
O775        O  0.75239292  0.88034243  0.96597587    -0.69600
O776        O  0.73358941  0.10741562  0.54402608    -0.69800
O777        O  0.74677294  0.03028261  0.96545646    -0.69700
O778        O  0.72241319  0.95887218  0.54358159    -0.69700
O779        O  0.53284705  0.89894619  0.51456690    -0.69700
O780        O  0.52938515  0.06274951  0.97752409    -0.69700
O781        O  0.54746354  0.04694196  0.51415540    -0.69600
O782        O  0.52925495  0.91239278  0.97892118    -0.69800
V783        V  0.73469447  0.95330514  0.99413739     1.35200
V784        V  0.51282756  0.98906189  0.00604893     1.35200
C785        C  0.78507113  0.86267048  0.96682586     0.79600
C786        C  0.76702800  0.11726399  0.54260718     0.79700
C787        C  0.77835897  0.05547059  0.96488028     0.79500
C788        C  0.75279400  0.92744902  0.54210456     0.78900
C789        C  0.60498771  0.25756566  0.74714706     0.32200
C790        C  0.77667721  0.25628940  0.75122595     0.32200
C791        C  0.58347443  0.21803054  0.77344567    -0.04000
C792        C  0.58520587  0.33901040  0.74730179    -0.04800
C793        C  0.58538937  0.22051891  0.71938197    -0.04700
C794        C  0.79596347  0.22097269  0.77953930    -0.04000
C795        C  0.79693587  0.33687387  0.75016574    -0.04800
C796        C  0.79779611  0.21362328  0.72590032    -0.04700
C797        C  0.78435627  0.18906950  0.80662733    -0.30100
N798        N  0.81316047  0.17208332  0.82418157     0.16400
C799        C  0.59200843  0.18654457  0.80164968    -0.30100
H800        H  0.61847958  0.18121342  0.81144404     0.18400
C801        C  0.78674342  0.41439884  0.74952750    -0.29100
N802        N  0.81627935  0.46153658  0.74997346     0.15100
C803        C  0.59549662  0.41650797  0.74850541    -0.29100
C804        C  0.78795306  0.17968983  0.69884030    -0.29400
N805        N  0.81777482  0.16186576  0.68283314     0.15600
H806        H  0.76101662  0.17444604  0.69003340     0.18300
C807        C  0.59651784  0.18829205  0.69219691    -0.29400
H808        H  0.62383528  0.17982909  0.68478146     0.18300
H809        H  0.62286128  0.43635315  0.74948344     0.18300
H810        H  0.75685509  0.18122059  0.81367895     0.18300
H811        H  0.75941225  0.43438824  0.74908128     0.18300
C812        C  0.60528706  0.75129066  0.74909226     0.32200
C813        C  0.77652257  0.74970124  0.75195026     0.32200
C814        C  0.58576232  0.78636019  0.72053905    -0.04000
C815        C  0.58508599  0.67103189  0.75013723    -0.04800
C816        C  0.58425781  0.79370754  0.77492851    -0.04700
C817        C  0.79527760  0.78861846  0.72447903    -0.04000
C818        C  0.79676451  0.66910182  0.75116000    -0.04800
C819        C  0.79779621  0.78906549  0.77818147    -0.04700
C820        C  0.78247894  0.81807123  0.69753560    -0.30100
N821        N  0.81032651  0.83408017  0.67894771     0.16400
C822        C  0.59583715  0.80407017  0.69072491    -0.30100
H823        H  0.62258438  0.80210147  0.68134030     0.18400
C824        C  0.78666428  0.59150447  0.75114314    -0.29100
N825        N  0.81620243  0.54456114  0.75009852     0.15100
C826        C  0.59539401  0.59369640  0.75014792    -0.29100
C827        C  0.78869852  0.81554670  0.80685933    -0.29400
N828        N  0.81897706  0.82844670  0.82307768     0.15600
H829        H  0.76204800  0.81931548  0.81632231     0.18300
C830        C  0.59318595  0.82281382  0.80341393    -0.29400
H831        H  0.61964673  0.82572201  0.81332236     0.18300
H832        H  0.62274921  0.57374037  0.75022807     0.18300
H833        H  0.75467457  0.82229719  0.69084984     0.18300
H834        H  0.75933373  0.57131700  0.75192925     0.18300
C835        C  0.65154190  0.75705834  0.75052976     0.32200
C836        C  0.73031438  0.75661269  0.75222714     0.32200
C837        C  0.67247094  0.71243439  0.72568560    -0.04000
C838        C  0.67177697  0.83723030  0.74862013    -0.04800
C839        C  0.67088924  0.72353596  0.77913423    -0.04700
C840        C  0.71073003  0.71276693  0.72627460    -0.04000
C841        C  0.71031713  0.83714697  0.74951484    -0.04800
C842        C  0.70930931  0.72321866  0.78008161    -0.04700
C843        C  0.72178302  0.68039860  0.69911871    -0.30100
N844        N  0.69248074  0.66137695  0.68261323     0.16400
C845        C  0.66263575  0.67803647  0.69876541    -0.30100
H846        H  0.63570692  0.67249843  0.68998749     0.18400
C847        C  0.72054474  0.91458381  0.74923417    -0.29100
N848        N  0.69100005  0.96155403  0.74822804     0.15100
C849        C  0.66151266  0.91452396  0.74784524    -0.29100
C850        C  0.71863139  0.69783558  0.80898678    -0.29400
N851        N  0.68831462  0.68506914  0.82521664     0.15600
H852        H  0.74535580  0.69254302  0.81821042     0.18300
C853        C  0.65942843  0.69805256  0.80727477    -0.29400
H854        H  0.63200620  0.69337661  0.81494131     0.18300
H855        H  0.63414080  0.93446860  0.74761820     0.18300
H856        H  0.74891603  0.67800679  0.69054860     0.18300
H857        H  0.74785452  0.93464466  0.75027340     0.18300
C858        C  0.73029630  0.24942207  0.74961554     0.32200
C859        C  0.65134800  0.24958359  0.74774452     0.32200
C860        C  0.71087469  0.28675980  0.72157776    -0.04000
C861        C  0.71011334  0.16882441  0.74949558    -0.04800
C862        C  0.70902272  0.28901317  0.77591303    -0.04700
C863        C  0.67242759  0.28746508  0.72105427    -0.04000
C864        C  0.67150159  0.16882946  0.74853245    -0.04800
C865        C  0.67071220  0.28909415  0.77470949    -0.04700
C866        C  0.66246214  0.31071321  0.69220710    -0.30100
N867        N  0.69211664  0.32071896  0.67497317     0.16400
C868        C  0.72161494  0.30759490  0.69232673    -0.30100
H869        H  0.74869990  0.30812760  0.68363023     0.18400
C870        C  0.66134478  0.09135435  0.74792693    -0.29100
N871        N  0.69092264  0.04441798  0.74850202     0.15100
C872        C  0.72039587  0.09146809  0.74941736    -0.29100
C873        C  0.65884523  0.31644302  0.80229565    -0.29400
N874        N  0.68743307  0.33082931  0.82030290     0.15600
H875        H  0.63132488  0.31951329  0.80985499     0.18300
C876        C  0.71798220  0.31581228  0.80470350    -0.29400
H877        H  0.74450711  0.31871740  0.81451544     0.18300
H878        H  0.74776345  0.07151361  0.74985665     0.18300
H879        H  0.63546706  0.31473062  0.68347178     0.18300
H880        H  0.63403401  0.07126674  0.74698699     0.18300
C881        C  0.80109471  0.82835066  0.94048804    -0.16400
C882        C  0.81133807  0.82050324  0.91449500     0.07700
C883        C  0.81819121  0.82525059  0.88275071     0.09600
C884        C  0.81989530  0.82990318  0.85520496    -0.17200
C885        C  0.76672502  0.88587804  0.56790660    -0.16400
C886        C  0.78079167  0.86733918  0.59174775     0.07700
C887        C  0.79635169  0.85625036  0.62106811     0.09600
C888        C  0.80562660  0.84789173  0.64743982    -0.17200
C889        C  0.79067978  0.09639897  0.93835442    -0.16400
C890        C  0.79937898  0.11794779  0.91309621     0.07700
C891        C  0.80705828  0.13575422  0.88208638     0.09600
C892        C  0.81107329  0.15091235  0.85524018    -0.17200
C893        C  0.78602626  0.14699934  0.56844281    -0.16400
C894        C  0.80038209  0.15408062  0.59301026     0.07700
C895        C  0.81248314  0.15222394  0.62362042     0.09600
C896        C  0.81731626  0.15269035  0.65093649    -0.17200
C897        C  0.65823890  0.64197072  0.93938071    -0.16400
C898        C  0.67057011  0.66199568  0.91515714     0.07700
C899        C  0.68131970  0.67200041  0.88440953     0.09600
C900        C  0.68631408  0.67668927  0.85715050    -0.17200
C901        C  0.69202464  0.65540461  0.65071734    -0.16400
C902        C  0.68782167  0.65727469  0.62344310     0.07700
C903        C  0.67734794  0.65850461  0.59258249     0.09600
C904        C  0.66531784  0.64684684  0.56752008    -0.17200
C905        C  0.65102517  0.36419330  0.93339873    -0.16400
C906        C  0.66419840  0.34801128  0.90908936     0.07700
C907        C  0.67752071  0.34190361  0.87901656     0.09600
C908        C  0.68448282  0.33886427  0.85210729    -0.17200
C909        C  0.66311653  0.36777003  0.56085405    -0.16400
C910        C  0.67483906  0.34512721  0.58498807     0.07700
C911        C  0.68585239  0.33269503  0.61561292     0.09600
C912        C  0.69101044  0.32756238  0.64288887    -0.17200
O913        O  0.89443184  0.44980870  0.04233237    -0.69600
O914        O  0.87773142  0.55722733  0.46210218    -0.69800
O915        O  0.89566271  0.60040474  0.04189957    -0.69700
O916        O  0.88628763  0.40736388  0.46150647    -0.69700
O917        O  0.83466329  0.39458817  0.48403596    -0.69700
O918        O  0.84336916  0.60202019  0.01997182    -0.69700
O919        O  0.82647314  0.54450783  0.48526455    -0.69600
O920        O  0.84205877  0.45174501  0.02052407    -0.69800
V921        V  0.90998290  0.52406486  0.01352937     1.35200
V922        V  0.84822034  0.47267193  0.51184211     1.35200
C923        C  0.86211298  0.42891245  0.04189916     0.79600
C924        C  0.84478420  0.57222173  0.46366840     0.79700
C925        C  0.86346125  0.62208964  0.04179156     0.79500
C926        C  0.85554156  0.37785472  0.46228645     0.79500
O927        O  0.95125226  0.94383910  0.48496258    -0.69600
O928        O  0.96390711  0.08781493  0.01830688    -0.69800
O929        O  0.95390772  0.09544974  0.48661072    -0.69700
O930        O  0.95200376  0.93931970  0.01804211    -0.69700
O931        O  0.77184116  0.88710431  0.04473512    -0.69700
O932        O  0.74961669  0.10418848  0.46539298    -0.69700
O933        O  0.76752722  0.03802185  0.04253721    -0.69600
O934        O  0.73859058  0.95587386  0.46467324    -0.69800
V935        V  0.96954614  0.01642158  0.51322576     1.35200
V936        V  0.76019948  0.02352279  0.49288036     1.35200
C937        C  0.97154021  0.91931291  0.46400507     0.79600
C938        C  0.98549082  0.10132077  0.03989288     0.79700
C939        C  0.97451686  0.11766361  0.46546726     0.79500
C940        C  0.97041446  0.91008601  0.03932386     0.78900
C941        C  0.72276457  0.25282875  0.25050172     0.32200
C942        C  0.89451786  0.24979150  0.25011416     0.32200
C943        C  0.70222304  0.21195414  0.27684116    -0.04000
C944        C  0.70250819  0.33357157  0.25117607    -0.04800
C945        C  0.70282975  0.21601346  0.22304932    -0.04700
C946        C  0.91486923  0.21558803  0.27832821    -0.04000
C947        C  0.91448908  0.33044126  0.24821840    -0.04800
C948        C  0.91498035  0.20696414  0.22406344    -0.04700
C949        C  0.90495471  0.19550120  0.30781063    -0.30100
N950        N  0.93485727  0.18762177  0.32508771     0.16400
C951        C  0.71247140  0.19075001  0.30593774    -0.30100
H952        H  0.73950191  0.18925987  0.31469000     0.18400
C953        C  0.90410718  0.40778917  0.24800679    -0.29100
N954        N  0.93355001  0.45505694  0.24783103     0.15100
C955        C  0.71259805  0.41114884  0.25209327    -0.29100
C956        C  0.90568156  0.17889287  0.19545097    -0.29400
N957        N  0.93601835  0.16036974  0.18003361     0.15600
H958        H  0.87919836  0.17844031  0.18548141     0.18300
C959        C  0.71409416  0.18565720  0.19570286    -0.29400
H960        H  0.74149384  0.17861456  0.18826333     0.18300
H961        H  0.73992272  0.43131377  0.25254701     0.18300
H962        H  0.87804168  0.19217540  0.31676807     0.18300
H963        H  0.87672658  0.42758035  0.24845697     0.18300
C964        C  0.72215957  0.74614059  0.25429627     0.32200
C965        C  0.89381110  0.74288127  0.25268699     0.32200
C966        C  0.70235504  0.78544789  0.22742814    -0.04000
C967        C  0.70201341  0.66559331  0.25404193    -0.04800
C968        C  0.70153012  0.78512971  0.28124459    -0.04700
C969        C  0.91309515  0.78508350  0.22592098    -0.04000
C970        C  0.91396718  0.66228991  0.25041194    -0.04800
C971        C  0.91518414  0.77753089  0.27997783    -0.04700
C972        C  0.90174288  0.81542524  0.19833837    -0.30100
N973        N  0.93083798  0.83400490  0.18137461     0.16400
C974        C  0.71379386  0.81063602  0.19942673    -0.30100
H975        H  0.74121380  0.81320956  0.19160919     0.18400
C976        C  0.90384339  0.58477088  0.24978608    -0.29100
N977        N  0.93341496  0.53795201  0.24836888     0.15100
C978        C  0.71232843  0.58820884  0.25362715    -0.29100
C979        C  0.90607352  0.80120150  0.30908985    -0.29400
N980        N  0.93648415  0.81449677  0.32505609     0.15600
H981        H  0.87944067  0.80463634  0.31864950     0.18300
C982        C  0.71121607  0.82031300  0.30840008    -0.29400
H983        H  0.73811605  0.82668271  0.31720861     0.18300
H984        H  0.73970536  0.56834948  0.25357270     0.18300
H985        H  0.87445586  0.81838715  0.19016986     0.18300
H986        H  0.87653948  0.56453834  0.25061289     0.18300
C987        C  0.76849058  0.75211972  0.25350078     0.32200
C988        C  0.84742865  0.75067704  0.25372055     0.32200
C989        C  0.78890054  0.71174883  0.22660642    -0.04000
C990        C  0.78887854  0.83230849  0.25317651    -0.04800
C991        C  0.78841609  0.71427288  0.28065237    -0.04700
C992        C  0.82724842  0.71108154  0.22719615    -0.04000
C993        C  0.82748415  0.83178872  0.25320614    -0.04800
C994        C  0.82679466  0.71289623  0.28076665    -0.04700
C995        C  0.83859485  0.68074258  0.19997465    -0.30100
N996        N  0.80978297  0.66584266  0.18233084     0.16400
C997        C  0.77947945  0.68270217  0.19814986    -0.30100
H998        H  0.75280630  0.67973236  0.18863073     0.18400
C999        C  0.83778643  0.90925849  0.25297058    -0.29100
N1000       N  0.80830643  0.95652608  0.25279297     0.15100
C1001       C  0.77872373  0.90971768  0.25293429    -0.29100
C1002       C  0.83661692  0.68015525  0.30815979    -0.29400
N1003       N  0.80664648  0.66453952  0.32446212     0.15600
H1004       H  0.86358694  0.67225668  0.31656210     0.18300
C1005       C  0.77733871  0.68375964  0.30805502    -0.29400
H1006       H  0.75011237  0.68011251  0.31634885     0.18300
H1007       H  0.75140791  0.92986697  0.25288645     0.18300
H1008       H  0.86602168  0.67673645  0.19220544     0.18300
H1009       H  0.86517950  0.92912317  0.25299716     0.18300
C1010       C  0.84820734  0.24366956  0.25022524     0.32200
C1011       C  0.76924068  0.24529331  0.25042931     0.32200
C1012       C  0.82816573  0.27942479  0.22276108    -0.04000
C1013       C  0.82776595  0.16362407  0.25171433    -0.04800
C1014       C  0.82827440  0.28672532  0.27612697    -0.04700
C1015       C  0.78978040  0.28045626  0.22252194    -0.04000
C1016       C  0.78915572  0.16419351  0.25176113    -0.04800
C1017       C  0.78991258  0.28675285  0.27671292    -0.04700
C1018       C  0.78013136  0.31087993  0.19440966    -0.30100
N1019       N  0.81036750  0.32663429  0.17838353     0.16400
C1020       C  0.83938639  0.30952635  0.19546280    -0.30100
H1021       H  0.86677331  0.31516510  0.18775698     0.18400
C1022       C  0.77884602  0.08672141  0.25228010    -0.29100
N1023       N  0.80832231  0.03943719  0.25254441     0.15100
C1024       C  0.83790978  0.08622179  0.25218043    -0.29100
C1025       C  0.78046980  0.31424303  0.30531521    -0.29400
N1026       N  0.81067661  0.32984598  0.32132510     0.15600
H1027       H  0.75382842  0.31660563  0.31488309     0.18300
C1028       C  0.83950331  0.31686744  0.30346286    -0.29400
H1029       H  0.86684384  0.32201811  0.31122108     0.18300
H1030       H  0.86522208  0.06605419  0.25198732     0.18300
H1031       H  0.75327452  0.31788433  0.18562304     0.18300
H1032       H  0.75145251  0.06685917  0.25220869     0.18300
C1033       C  0.95787016  0.87386561  0.43954312    -0.16400
C1034       C  0.94891444  0.84876619  0.41507425     0.07700
C1035       C  0.94181509  0.83268740  0.38408269     0.09600
C1036       C  0.93840413  0.82466834  0.35683578    -0.17200
C1037       C  0.95351382  0.87569277  0.06539152    -0.16400
C1038       C  0.94240851  0.86135233  0.09072988     0.07700
C1039       C  0.93390312  0.85364189  0.12216731     0.09600
C1040       C  0.93080069  0.84699884  0.14960481    -0.17200
C1041       C  0.96104871  0.16227421  0.44055650    -0.16400
C1042       C  0.95023427  0.18157693  0.41572676     0.07700
C1043       C  0.94044843  0.18770767  0.38460015     0.09600
C1044       C  0.93602445  0.18687408  0.35721624    -0.17200
C1045       C  0.97365597  0.14218402  0.06635658    -0.16400
C1046       C  0.96123197  0.15595982  0.09122227     0.07700
C1047       C  0.94746689  0.15688435  0.12132173     0.09600
C1048       C  0.93953861  0.15564689  0.14810815    -0.17200
C1049       C  0.82789412  0.61172558  0.43906871    -0.16400
C1050       C  0.81664608  0.63004104  0.41434891     0.07700
C1051       C  0.80876298  0.64072478  0.38316838     0.09600
C1052       C  0.80649282  0.64930840  0.35590122    -0.17200
C1053       C  0.81275377  0.65971621  0.15037740    -0.16400
C1054       C  0.82036747  0.66111466  0.12349675     0.07700
C1055       C  0.83444625  0.66392883  0.09345562     0.09600
C1056       C  0.84823576  0.65599895  0.06865368    -0.17200
C1057       C  0.84265008  0.33665296  0.43630318    -0.16400
C1058       C  0.83107935  0.32336194  0.41111672     0.07700
C1059       C  0.81947335  0.32509228  0.38039518     0.09600
C1060       C  0.81328043  0.33009516  0.35335924    -0.17200
C1061       C  0.84717755  0.38819829  0.06723888    -0.16400
C1062       C  0.83361629  0.36821456  0.09095193     0.07700
C1063       C  0.81982102  0.35447607  0.12049950     0.09600
C1064       C  0.81273438  0.34350351  0.14707551    -0.17200
O1065       O  0.91941270  0.41466359  0.51689152    -0.69600
O1066       O  0.92753711  0.59794665  0.98532747    -0.69800
O1067       O  0.91096145  0.56462628  0.51711259    -0.69700
O1068       O  0.92617947  0.44708059  0.98623768    -0.69700
O1069       O  0.87366803  0.44839024  0.96466723    -0.69700
O1070       O  0.85989222  0.55042958  0.54043097    -0.69700
O1071       O  0.87504687  0.59910515  0.96373941    -0.69600
O1072       O  0.86781733  0.40030195  0.53930951    -0.69800
V1073       V  0.89759326  0.48565444  0.48982944     1.35200
V1074       V  0.85961281  0.52548651  0.99262291     1.35200
C1075       C  0.90087645  0.38636057  0.53827828     0.79600
C1076       C  0.90742191  0.61920832  0.96364727     0.79700
C1077       C  0.89038791  0.58114954  0.53905214     0.79500
C1078       C  0.90546293  0.42439769  0.96526084     0.79500
O1079       O  0.98319369  0.92883494  0.96157111    -0.69600
O1080       O  0.98599820  0.08830193  0.54246134    -0.69800
O1081       O  0.99502298  0.07800376  0.96228255    -0.69700
O1082       O  0.98319059  0.93756966  0.54068857    -0.69700
O1083       O  0.77282069  0.94225516  0.51954600    -0.69700
O1084       O  0.79963578  0.03682168  0.98616823    -0.69700
O1085       O  0.78406665  0.09045322  0.52009371    -0.69600
O1086       O  0.80415886  0.88658810  0.98870315    -0.69800
V1087       V  0.97454822  0.00805890  0.99040976     1.35200
V1088       V  0.78480062  0.96195136  0.01519444     1.35200
C1089       C  0.01315186  0.89557037  0.96179527     0.79600
C1090       C  0.01854265  0.10727035  0.54212418     0.79700
C1091       C  0.02832894  0.08940550  0.96299313     0.79500
C1092       C  0.01484752  0.91265665  0.53968638     0.78900
C1093       C  0.85560374  0.25612394  0.75316159     0.32200
C1094       C  0.02728674  0.25773783  0.75273176     0.32200
C1095       C  0.83436957  0.22103357  0.78066377    -0.04000
C1096       C  0.83552693  0.33683039  0.75109475    -0.04800
C1097       C  0.83608347  0.21359933  0.72663557    -0.04700
C1098       C  0.04844313  0.22213979  0.77987505    -0.04000
C1099       C  0.04711347  0.33880541  0.75102875    -0.04800
C1100       C  0.04706790  0.21600598  0.72635097    -0.04700
C1101       C  0.03891126  0.19115756  0.80760989    -0.30100
N1102       N  0.06903722  0.17544931  0.82362195     0.16400
C1103       C  0.84356254  0.18976098  0.80871260    -0.30100
H1104       H  0.87032452  0.18273215  0.81772619     0.18400
C1105       C  0.03675005  0.41620497  0.75065390    -0.29100
N1106       N  0.06621329  0.46346680  0.74977896     0.15100
C1107       C  0.84576459  0.41439015  0.75090156    -0.29100
C1108       C  0.03601995  0.17934403  0.70024458    -0.29400
N1109       N  0.06513286  0.16134953  0.68331181     0.15600
H1110       H  0.00866693  0.17191915  0.69271158     0.18300
C1111       C  0.84708854  0.18013190  0.69955996    -0.29400
H1112       H  0.87429901  0.17509223  0.69140033     0.18300
H1113       H  0.87311783  0.43441990  0.75182972     0.18300
H1114       H  0.01202759  0.18458607  0.81641004     0.18300
H1115       H  0.00937592  0.43603277  0.75123050     0.18300
C1116       C  0.85518014  0.75053655  0.74933537     0.32200
C1117       C  0.02640338  0.75075206  0.74868481     0.32200
C1118       C  0.83353857  0.78916006  0.72267585    -0.04000
C1119       C  0.83529427  0.66945736  0.74995118    -0.04800
C1120       C  0.83608257  0.78899171  0.77698544    -0.04700
C1121       C  0.04673515  0.79039062  0.72224372    -0.04000
C1122       C  0.04674366  0.67048964  0.74878223    -0.04800
C1123       C  0.04591757  0.78975119  0.77573421    -0.04700
C1124       C  0.03594478  0.81619568  0.69410609    -0.30100
N1125       N  0.06511133  0.82760507  0.67648791     0.16400
C1126       C  0.84148290  0.81819727  0.69378103    -0.30100
H1127       H  0.86773995  0.82314023  0.68356349     0.18400
C1128       C  0.03657666  0.59311477  0.74896220    -0.29100
N1129       N  0.06614642  0.54632024  0.74937596     0.15100
C1130       C  0.84565473  0.59194001  0.74935275    -0.29100
C1131       C  0.03395751  0.81152278  0.80409338    -0.29400
N1132       N  0.06227671  0.82032127  0.82286122     0.15600
H1133       H  0.00639733  0.81398564  0.81154371     0.18300
C1134       C  0.84778222  0.81453239  0.80515625    -0.29400
H1135       H  0.87517129  0.81642725  0.81308901     0.18300
H1136       H  0.87299835  0.57213805  0.74834333     0.18300
H1137       H  0.00871771  0.82043062  0.68594347     0.18300
H1138       H  0.00924415  0.57296813  0.74886458     0.18300
C1139       C  0.90141540  0.75747156  0.74916352     0.32200
C1140       C  0.98017019  0.75681837  0.74853880     0.32200
C1141       C  0.92116607  0.72297320  0.72125193    -0.04000
C1142       C  0.92167940  0.83779242  0.75100954    -0.04800
C1143       C  0.92184465  0.71399584  0.77485069    -0.04700
C1144       C  0.95951287  0.72252768  0.72063444    -0.04000
C1145       C  0.96023314  0.83744225  0.75074363    -0.04800
C1146       C  0.96016615  0.71365396  0.77460327    -0.04700
C1147       C  0.96897877  0.69371293  0.69223803    -0.30100
N1148       N  0.93865343  0.67882904  0.67625848     0.16400
C1149       C  0.90975751  0.69430756  0.69374374    -0.30100
H1150       H  0.88233977  0.68865457  0.68616431     0.18400
C1151       C  0.97068697  0.91464910  0.75213392    -0.29100
N1152       N  0.94127051  0.96189404  0.75318873     0.15100
C1153       C  0.91163260  0.91521115  0.75253747    -0.29100
C1154       C  0.97074553  0.68315973  0.80232176    -0.29400
N1155       N  0.94126766  0.66766844  0.81923109     0.15600
H1156       H  0.99783810  0.67915799  0.81085066     0.18300
C1157       C  0.91163211  0.68390052  0.80264641    -0.29400
H1158       H  0.88464774  0.68089403  0.81150013     0.18300
H1159       H  0.88431557  0.93547146  0.75291140     0.18300
H1160       H  0.99575377  0.68736413  0.68319896     0.18300
H1161       H  0.99807782  0.93438338  0.75211010     0.18300
C1162       C  0.98095876  0.24990611  0.75322078     0.32200
C1163       C  0.90200481  0.24950905  0.75350509     0.32200
C1164       C  0.96050396  0.28605205  0.72572654    -0.04000
C1165       C  0.96085872  0.16913605  0.75428165    -0.04800
C1166       C  0.96076061  0.29061654  0.77982207    -0.04700
C1167       C  0.92212508  0.28612942  0.72599749    -0.04000
C1168       C  0.92224274  0.16908742  0.75442123    -0.04800
C1169       C  0.92234204  0.29041267  0.77986848    -0.04700
C1170       C  0.91141447  0.30860131  0.69720287    -0.30100
N1171       N  0.94076102  0.31952985  0.67960800     0.16400
C1172       C  0.97058662  0.30743382  0.69651978    -0.30100
H1173       H  0.99749820  0.30859221  0.68744648     0.18400
C1174       C  0.91195477  0.09179419  0.75438834    -0.29100
N1175       N  0.94144554  0.04472550  0.75415073     0.15100
C1176       C  0.97102723  0.09163958  0.75414008    -0.29100
C1177       C  0.91191260  0.31693001  0.80814159    -0.29400
N1178       N  0.94145476  0.33154864  0.82506323     0.15600
H1179       H  0.88483668  0.31961221  0.81680686     0.18300
C1180       C  0.97114208  0.31711462  0.80825313    -0.29400
H1181       H  0.99816279  0.32015292  0.81701482     0.18300
H1182       H  0.99836479  0.07151288  0.75363973     0.18300
H1183       H  0.88423286  0.31109154  0.68877972     0.18300
H1184       H  0.88459229  0.07190548  0.75412748     0.18300
C1185       C  0.02431058  0.85075843  0.93600800    -0.16400
C1186       C  0.03636636  0.83050874  0.91166799     0.07700
C1187       C  0.05021396  0.82252997  0.88167419     0.09600
C1188       C  0.05843462  0.82201735  0.85488733    -0.17200
C1189       C  0.02866980  0.86739525  0.56419681    -0.16400
C1190       C  0.04191120  0.84625680  0.58785937     0.07700
C1191       C  0.05571804  0.83655630  0.61763693     0.09600
C1192       C  0.06283214  0.83344912  0.64453645    -0.17200
C1193       C  0.04536449  0.12783630  0.93814614    -0.16400
C1194       C  0.05726973  0.14528851  0.91353096     0.07700
C1195       C  0.06636706  0.15472597  0.88250004     0.09600
C1196       C  0.06933816  0.16192156  0.85520195    -0.17200
C1197       C  0.03428306  0.14048051  0.56868861    -0.16400
C1198       C  0.04686655  0.14874723  0.59381255     0.07700
C1199       C  0.05806196  0.14739739  0.62454157     0.09600
C1200       C  0.06323259  0.14933492  0.65171350    -0.17200
C1201       C  0.92194161  0.65438751  0.93676784    -0.16400
C1202       C  0.93151316  0.66470541  0.91069274     0.07700
C1203       C  0.93858837  0.66380969  0.87889216     0.09600
C1204       C  0.94108140  0.66243094  0.85131628    -0.17200
C1205       C  0.93617105  0.66583603  0.64467839    -0.16400
C1206       C  0.92932321  0.65805943  0.61789433     0.07700
C1207       C  0.91611509  0.64624672  0.58805623     0.09600
C1208       C  0.90341203  0.62539220  0.56414693    -0.17200
C1209       C  0.91882186  0.38028876  0.94021253    -0.16400
C1210       C  0.92882534  0.35912288  0.91540158     0.07700
C1211       C  0.93727943  0.34763518  0.88427141     0.09600
C1212       C  0.94076166  0.34149838  0.85692266    -0.17200
C1213       C  0.91746702  0.34787742  0.56342068    -0.16400
C1214       C  0.92831022  0.33161932  0.58858385     0.07700
C1215       C  0.93649632  0.32558709  0.62004272     0.09600
C1216       C  0.93978696  0.32404631  0.64753268    -0.17200
loop_ 
_geom_bond_atom_site_label_1 
_geom_bond_atom_site_label_2 
_geom_bond_distance 
_geom_bond_site_symmetry_2 
_ccdc_geom_bond_type 
O1            V9   1.896       .  S
O1           C11   1.262       .  A
O2          V161   1.903       .  S
O2           C12   1.264       .  A
O3            V9   1.894       .  S
O3           C13   1.262       .  A
O4          V161   1.899       .  S
O4           C14   1.263       .  A
O5           V10   1.892       .  S
O5           C14   1.260       .  A
O6          V162   1.902   1_554  S
O6           C13   1.263       .  A
O7           V10   1.887       .  S
O7           C12   1.259       .  A
O8          V162   1.897   1_554  S
O8           C11   1.261       .  A
V9          O154   1.896   1_554  S
V9          O156   1.895   1_554  S
V9          V162   2.091   1_554  T
V10         O158   1.886       .  S
V10         O160   1.892       .  S
V10         V161   2.092       .  T
C11         C149   1.430       .  S
C12         C137   1.429       .  S
C13         C144   1.432       .  S
C14         C145   1.429       .  S
O15          V23   1.892       .  S
O15          C25   1.260       .  A
O16         V175   1.900   1_544  S
O16          C26   1.262       .  A
O17          V23   1.893   1_545  S
O17          C27   1.261       .  A
O18         V175   1.889   1_554  S
O18          C28   1.259       .  A
O19         V176   1.893       .  S
O19         C940   1.262   1_455  A
O20          V24   1.894       .  S
O20         C939   1.262   1_455  A
O21         V176   1.895   1_545  S
O21         C938   1.262   1_455  A
O22          V24   1.888   1_565  S
O22         C937   1.260   1_455  A
V23         O168   1.892   1_565  S
V23         O170   1.890       .  S
V23         V328   2.092       .  T
V24         O171   1.891   1_545  S
V24         O173   1.889       .  S
V24         V935   2.092   1_455  T
C25         O326   1.263       .  A
C25         C121   1.427       .  S
C26         O325   1.262       .  A
C26         C133   1.433       .  S
C27         O324   1.263       .  A
C27         C129   1.431       .  S
C28         O323   1.262       .  A
C28         C125   1.422       .  S
C29          C31   1.546       .  S
C29          C33   1.545       .  S
C29          C32   1.600       .  S
C29          C99   1.730   1_655  S
C30          C34   1.559       .  S
C30          C36   1.562       .  S
C30          C35   1.602       .  S
C30          C98   1.729       .  S
C31          C39   1.370       .  A
C31         C946   1.436       .  A
C32          C43   1.409       .  A
C32         C947   1.441       .  A
C33          C47   1.366       .  A
C33         C948   1.432       .  A
C34          C37   1.384       .  A
C34         C335   1.430       .  A
C35          C41   1.412       .  A
C35         C336   1.441       .  A
C36          C44   1.381       .  A
C36         C337   1.433       .  A
C37          N38   1.360       .  A
C37          H50   1.082       .  S
N38         C343   1.348       .  A
N38         C132   1.399       .  S
C39         N950   1.350       .  A
C39          H40   1.081       .  S
C41          N42   1.379       .  A
C41          H51   1.081       .  S
N42         C347   1.378       .  A
N42          N65   1.454       .  S
C43         N954   1.378       .  A
C43          H49   1.081       .  S
C44          N45   1.355       .  A
C44          H46   1.081       .  S
N45         C351   1.352       .  A
N45         C136   1.402       .  S
C47         N957   1.347       .  A
C47          H48   1.081       .  S
C52          C54   1.555       .  S
C52          C56   1.549       .  S
C52          C55   1.602       .  S
C52          C75   1.738   1_655  S
C53          C57   1.558       .  S
C53          C59   1.558       .  S
C53          C58   1.604       .  S
C53          C76   1.731       .  S
C54          C62   1.374       .  A
C54         C969   1.434       .  A
C55          C66   1.409       .  A
C55         C970   1.445       .  A
C56          C70   1.371       .  A
C56         C971   1.436       .  A
C57          C60   1.379       .  A
C57         C358   1.433       .  A
C58          C64   1.413       .  A
C58         C359   1.440       .  A
C59          C67   1.380       .  A
C59         C360   1.431       .  A
C60          N61   1.355       .  A
C60          H73   1.080       .  S
N61         C366   1.348       .  A
N61         C128   1.394       .  S
C62         N973   1.353       .  A
C62          H63   1.081       .  S
C64          N65   1.379       .  A
C64          H74   1.082       .  S
N65         C370   1.378       .  A
C66         N977   1.378       .  A
C66          H72   1.081       .  S
C67          N68   1.354       .  A
C67          H69   1.082       .  S
N68         C374   1.351       .  A
N68         C124   1.398       .  S
C70         N980   1.351       .  A
C70          H71   1.081       .  S
C75          C77   1.563       .  S
C75          C79   1.570       .  S
C75          C78   1.601       .  S
C76          C80   1.550       .  S
C76          C82   1.537       .  S
C76          C81   1.601       .  S
C77          C85   1.381       .  A
C77          C80   1.435       .  A
C78          C89   1.411       .  A
C78          C81   1.442       .  A
C79          C93   1.391       .  A
C79          C82   1.433       .  A
C80          C83   1.373       .  A
C81          C87   1.409       .  A
C82          C90   1.360       .  A
C83          N84   1.352       .  A
C83          H96   1.081       .  S
N84          C85   1.355       .  A
N84         C141   1.401       .  S
C85          H86   1.081   1_455  S
C87          N88   1.377       .  A
C87          H97   1.082       .  S
N88          C89   1.378       .  A
N88         N111   1.453   1_565  S
C89          H95   1.081       .  S
C90          N91   1.342       .  A
C90          H92   1.082       .  S
N91          C93   1.361       .  A
N91         C140   1.399       .  S
C93          H94   1.080       .  S
C98         C100   1.552       .  S
C98         C102   1.544       .  S
C98         C101   1.598       .  S
C99         C103   1.558       .  S
C99         C105   1.556       .  S
C99         C104   1.602       .  S
C100        C108   1.372       .  A
C100        C103   1.434       .  A
C101        C112   1.408       .  A
C101        C104   1.442       .  A
C102        C116   1.368       .  A
C102        C105   1.431       .  A
C103        C106   1.381       .  A
C104        C110   1.411       .  A
C105        C113   1.379       .  A
C106        N107   1.354       .  A
C106        H119   1.081       .  S
N107        C108   1.350       .  A
N107        C152   1.400       .  S
C108        H109   1.080       .  S
C110        N111   1.378       .  A
C110        H120   1.082       .  S
N111        C112   1.378       .  A
C112        H118   1.081       .  S
C113        N114   1.356       .  A
C113        H115   1.082       .  S
N114        C116   1.351       .  A
N114        C148   1.397       .  S
C116        H117   1.083       .  S
C121        C122   1.202       .  T
C122        C123   1.406       .  S
C123        C124   1.202       .  T
C125        C126   1.198       .  T
C126        C127   1.401       .  S
C127        C128   1.199       .  T
C129        C130   1.205       .  T
C130        C131   1.411       .  S
C131        C132   1.204       .  T
C133        C134   1.205       .  T
C134        C135   1.412       .  S
C135        C136   1.206       .  T
C137        C138   1.204       .  T
C138        C139   1.412       .  S
C139        C140   1.205       .  T
C141        C142   1.205       .  T
C142        C143   1.410       .  S
C143        C144   1.204       .  T
C145        C146   1.203       .  T
C146        C147   1.407       .  S
C147        C148   1.202       .  T
C149        C150   1.203       .  T
C150        C151   1.408       .  S
C151        C152   1.204       .  T
O153        V161   1.898       .  S
O153        C163   1.262       .  A
O154        C164   1.261       .  A
O155        V161   1.904       .  S
O155        C165   1.264       .  A
O156        C166   1.261       .  A
O157        V162   1.896       .  S
O157        C166   1.263       .  A
O158        C165   1.260       .  A
O159        V162   1.894       .  S
O159        C164   1.262       .  A
O160        C163   1.261       .  A
C163        C301   1.429       .  S
C164        C289   1.429       .  S
C165        C296   1.430       .  S
C166        C297   1.429       .  S
O167        V175   1.891       .  S
O167        C177   1.261       .  A
O168        C178   1.261       .  A
O169        V175   1.894   1_545  S
O169        C179   1.262       .  A
O170        C180   1.261       .  A
O171       C1092   1.260       .  A
O172        V176   1.893   1_546  S
O172       C1091   1.260       .  A
O173       C1090   1.259       .  A
O174        V176   1.896   1_556  S
O174       C1089   1.262       .  A
V175        V480   2.092   1_566  T
V176       V1087   2.092   1_464  T
C177        O478   1.260       .  A
C177        C273   1.423       .  S
C178        O477   1.264       .  A
C178        C285   1.434       .  S
C179        O476   1.263       .  A
C179        C281   1.433       .  S
C180        O475   1.261       .  A
C180        C277   1.424       .  S
C181        C183   1.551       .  S
C181        C185   1.549       .  S
C181        C184   1.598       .  S
C181        C251   1.728       .  S
C182        C186   1.551       .  S
C182        C188   1.556       .  S
C182        C187   1.602       .  S
C182        C250   1.731       .  S
C183        C191   1.374       .  A
C183       C1098   1.435       .  A
C184        C195   1.408       .  A
C184       C1099   1.443       .  A
C185        C199   1.374       .  A
C185       C1100   1.432       .  A
C186        C487   1.431       .  A
C186        C189   1.373       .  A
C187        C488   1.441       .  A
C187        C193   1.410       .  A
C188        C489   1.432       .  A
C188        C196   1.377       .  A
C189        N190   1.352       .  A
C189        H202   1.082       .  S
N190        C495   1.356       .  A
N190        C284   1.402       .  S
C191       N1102   1.352       .  A
C191        H192   1.082       .  S
C193        N194   1.378       .  A
C193        H203   1.081       .  S
N194        C499   1.378       .  A
N194        N217   1.453       .  S
C195       N1106   1.377       .  A
C195        H201   1.081       .  S
C196        N197   1.356       .  A
C196        H198   1.082       .  S
N197        C503   1.353       .  A
N197        C288   1.402       .  S
C199       N1109   1.353       .  A
C199        H200   1.082       .  S
C204        C206   1.559       .  S
C204        C208   1.570       .  S
C204        C207   1.601       .  S
C204        C227   1.740       .  S
C205        C209   1.551       .  S
C205        C211   1.550       .  S
C205        C210   1.599       .  S
C205        C228   1.732       .  S
C206        C214   1.382       .  A
C206       C1121   1.435       .  A
C207        C218   1.409       .  A
C207       C1122   1.442       .  A
C208        C222   1.388       .  A
C208       C1123   1.437       .  A
C209        C510   1.435       .  A
C209        C212   1.371       .  A
C210        C511   1.441       .  A
C210        C216   1.409       .  A
C211        C512   1.435       .  A
C211        C219   1.372       .  A
C212        N213   1.350       .  A
C212        H225   1.081       .  S
N213        C518   1.353       .  A
N213        C280   1.397       .  S
C214       N1125   1.355       .  A
C214        H215   1.081       .  S
C216        N217   1.377       .  A
C216        H226   1.081       .  S
N217        C522   1.378       .  A
C218       N1129   1.378       .  A
C218        H224   1.081       .  S
C219        N220   1.352       .  A
C219        H221   1.081       .  S
N220        C526   1.351       .  A
N220        C276   1.395       .  S
C222       N1132   1.358       .  A
C222        H223   1.080       .  S
C227        C229   1.560       .  S
C227        C231   1.552       .  S
C227        C230   1.605       .  S
C228        C232   1.550       .  S
C228        C234   1.556       .  S
C228        C233   1.600       .  S
C229        C237   1.380       .  A
C229        C232   1.433       .  A
C230        C241   1.412       .  A
C230        C233   1.443       .  A
C231        C245   1.370       .  A
C231        C234   1.434       .  A
C232        C235   1.373       .  A
C233        C239   1.410       .  A
C234        C242   1.379       .  A
C235        N236   1.350       .  A
C235        H248   1.082       .  S
N236        C237   1.357       .  A
N236        C293   1.401       .  S
C237        H238   1.082       .  S
C239        N240   1.377       .  A
C239        H249   1.082       .  S
N240        C241   1.380       .  A
N240        N263   1.454   1_565  S
C241        H247   1.081       .  S
C242        N243   1.355       .  A
C242        H244   1.082       .  S
N243        C245   1.351       .  A
N243        C292   1.399       .  S
C245        H246   1.081       .  S
C250        C252   1.560       .  S
C250        C254   1.557       .  S
C250        C253   1.603       .  S
C251        C255   1.546       .  S
C251        C257   1.550       .  S
C251        C256   1.599       .  S
C252        C260   1.382       .  A
C252        C255   1.433       .  A
C253        C264   1.412       .  A
C253        C256   1.441       .  A
C254        C268   1.380       .  A
C254        C257   1.432       .  A
C255        C258   1.369       .  A
C256        C262   1.409       .  A
C257        C265   1.372       .  A
C258        N259   1.350       .  A
C258        H271   1.082       .  S
N259        C260   1.358       .  A
N259        C304   1.400       .  S
C260        H261   1.081       .  S
C262        N263   1.377       .  A
C262        H272   1.082       .  S
N263        C264   1.380       .  A
C264        H270   1.081       .  S
C265        N266   1.353       .  A
C265        H267   1.082       .  S
N266        C268   1.354       .  A
N266        C300   1.399       .  S
C268        H269   1.082       .  S
C273        C274   1.199       .  T
C274        C275   1.402       .  S
C275        C276   1.200       .  T
C277        C278   1.200       .  T
C278        C279   1.404       .  S
C279        C280   1.201       .  T
C281        C282   1.205       .  T
C282        C283   1.412       .  S
C283        C284   1.206       .  T
C285        C286   1.206       .  T
C286        C287   1.412       .  S
C287        C288   1.206       .  T
C289        C290   1.203       .  T
C290        C291   1.409       .  S
C291        C292   1.203       .  T
C293        C294   1.205       .  T
C294        C295   1.411       .  S
C295        C296   1.204       .  T
C297        C298   1.203       .  T
C298        C299   1.409       .  S
C299        C300   1.204       .  T
C301        C302   1.204       .  T
C302        C303   1.410       .  S
C303        C304   1.204       .  T
O305        V313   1.894       .  S
O305        C315   1.262       .  A
O306        V465   1.888       .  S
O306        C316   1.261       .  A
O307        V313   1.895       .  S
O307        C317   1.262       .  A
O308        V465   1.891       .  S
O308        C318   1.261       .  A
O309        V314   1.907       .  S
O309        C318   1.264       .  A
O310        V466   1.895   1_554  S
O310        C317   1.261       .  A
O311        V314   1.896       .  S
O311        C316   1.261       .  A
O312        V466   1.896   1_554  S
O312        C315   1.261       .  A
V313        O458   1.898   1_554  S
V313        O460   1.891   1_554  S
V313        V466   2.091   1_554  T
V314        O462   1.899       .  S
V314        O464   1.896       .  S
V314        V465   2.092       .  T
C315        C453   1.427       .  S
C316        C441   1.422       .  S
C317        C448   1.429       .  S
C318        C449   1.434       .  S
O319        V327   1.895   1_565  S
O319        C329   1.261       .  A
O320        V479   1.903   1_544  S
O320        C330   1.264       .  A
O321        V327   1.894       .  S
O321        C331   1.261       .  A
O322        V479   1.898   1_554  S
O322        C332   1.262       .  A
O323        V480   1.894   1_565  S
O324        V328   1.899   1_545  S
O325        V480   1.896       .  S
O326        V328   1.897       .  S
V327        O472   1.890       .  S
V327        O474   1.897   1_545  S
V327        V632   2.092   1_545  T
V328        O475   1.895       .  S
V328        O477   1.905   1_565  S
C329        O630   1.261       .  A
C329        C425   1.424       .  S
C330        O629   1.262       .  A
C330        C437   1.435       .  S
C331        O628   1.262       .  A
C331        C433   1.425       .  S
C332        O627   1.261       .  A
C332        C429   1.427       .  S
C333        C335   1.544       .  S
C333        C337   1.549       .  S
C333        C336   1.601       .  S
C333        C403   1.727       .  S
C334        C338   1.557       .  S
C334        C340   1.562       .  S
C334        C339   1.603       .  S
C334        C402   1.733       .  S
C335        C343   1.366       .  A
C336        C347   1.410       .  A
C337        C351   1.372       .  A
C338        C639   1.435       .  A
C338        C341   1.381       .  A
C339        C640   1.441       .  A
C339        C345   1.411       .  A
C340        C641   1.433       .  A
C340        C348   1.382       .  A
C341        N342   1.356       .  A
C341        H354   1.081       .  S
N342        C647   1.349       .  A
N342        C436   1.397       .  S
C343        H344   1.082       .  S
C345        N346   1.379       .  A
C345        H355   1.081       .  S
N346        C651   1.377       .  A
N346        N369   1.453       .  S
C347        H353   1.081       .  S
C348        N349   1.356       .  A
C348        H350   1.082       .  S
N349        C655   1.353       .  A
N349        C440   1.404       .  S
C351        H352   1.082       .  S
C356        C358   1.541       .  S
C356        C360   1.549       .  S
C356        C359   1.599       .  S
C356        C379   1.724       .  S
C357        C361   1.551       .  S
C357        C363   1.546       .  S
C357        C362   1.598       .  S
C357        C380   1.726       .  S
C358        C366   1.365       .  A
C359        C370   1.410       .  A
C360        C374   1.370       .  A
C361        C662   1.433       .  A
C361        C364   1.374       .  A
C362        C663   1.443       .  A
C362        C368   1.408       .  A
C363        C664   1.433       .  A
C363        C371   1.372       .  A
C364        N365   1.353       .  A
C364        H377   1.082       .  S
N365        C670   1.354       .  A
N365        C432   1.397       .  S
C366        H367   1.082       .  S
C368        N369   1.376       .  A
C368        H378   1.082       .  S
N369        C674   1.380       .  A
C370        H376   1.081       .  S
C371        N372   1.350       .  A
C371        H373   1.082       .  S
N372        C678   1.355       .  A
N372        C428   1.396       .  S
C374        H375   1.081       .  S
C379        C381   1.556       .  S
C379        C383   1.549       .  S
C379        C382   1.602       .  S
C380        C384   1.548       .  S
C380        C386   1.554       .  S
C380        C385   1.599       .  S
C381        C389   1.379       .  A
C381        C384   1.431       .  A
C382        C393   1.411       .  A
C382        C385   1.440       .  A
C383        C397   1.373       .  A
C383        C386   1.432       .  A
C384        C387   1.370       .  A
C385        C391   1.410       .  A
C386        C394   1.374       .  A
C387        N388   1.351       .  A
C387        H400   1.082       .  S
N388        C389   1.355       .  A
N388        C445   1.398       .  S
C389        H390   1.082       .  S
C391        N392   1.377       .  A
C391        H401   1.082       .  S
N392        C393   1.379       .  A
N392        N415   1.454   1_565  S
C393        H399   1.081       .  S
C394        N395   1.353       .  A
C394        H396   1.081       .  S
N395        C397   1.350       .  A
N395        C444   1.395       .  S
C397        H398   1.081       .  S
C402        C404   1.549       .  S
C402        C406   1.558       .  S
C402        C405   1.603       .  S
C403        C407   1.554       .  S
C403        C409   1.555       .  S
C403        C408   1.600       .  S
C404        C412   1.370       .  A
C404        C407   1.432       .  A
C405        C416   1.411       .  A
C405        C408   1.441       .  A
C406        C420   1.378       .  A
C406        C409   1.434       .  A
C407        C410   1.379       .  A
C408        C414   1.410       .  A
C409        C417   1.377       .  A
C410        N411   1.355       .  A
C410        H423   1.081       .  S
N411        C412   1.349       .  A
N411        C456   1.398       .  S
C412        H413   1.081       .  S
C414        N415   1.377       .  A
C414        H424   1.082       .  S
N415        C416   1.379       .  A
C416        H422   1.081       .  S
C417        N418   1.352       .  A
C417        H419   1.082       .  S
N418        C420   1.356       .  A
N418        C452   1.403       .  S
C420        H421   1.081       .  S
C425        C426   1.200       .  T
C426        C427   1.404       .  S
C427        C428   1.201       .  T
C429        C430   1.202       .  T
C430        C431   1.407       .  S
C431        C432   1.202       .  T
C433        C434   1.201       .  T
C434        C435   1.405       .  S
C435        C436   1.202       .  T
C437        C438   1.207       .  T
C438        C439   1.415       .  S
C439        C440   1.207       .  T
C441        C442   1.199       .  T
C442        C443   1.402       .  S
C443        C444   1.200       .  T
C445        C446   1.203       .  T
C446        C447   1.408       .  S
C447        C448   1.203       .  T
C449        C450   1.205       .  T
C450        C451   1.412       .  S
C451        C452   1.206       .  T
C453        C454   1.202       .  T
C454        C455   1.407       .  S
C455        C456   1.203       .  T
O457        V465   1.893       .  S
O457        C467   1.261       .  A
O458        C468   1.262       .  A
O459        V465   1.893       .  S
O459        C469   1.260       .  A
O460        C470   1.260       .  A
O461        V466   1.892       .  S
O461        C470   1.261       .  A
O462        C469   1.264       .  A
O463        V466   1.898       .  S
O463        C468   1.263       .  A
O464        C467   1.263       .  A
C467        C605   1.429       .  S
C468        C593   1.434       .  S
C469        C600   1.429       .  S
C470        C601   1.423       .  S
O471        V479   1.899       .  S
O471        C481   1.263       .  A
O472        C482   1.261       .  A
O473        V479   1.900   1_545  S
O473        C483   1.264       .  A
O474        C484   1.263       .  A
O476        V480   1.900   1_556  S
O478        V480   1.893   1_566  S
V479        V784   2.091   1_556  T
C481        O782   1.260       .  A
C481        C577   1.427       .  S
C482        O781   1.261       .  A
C482        C589   1.425       .  S
C483        O780   1.261       .  A
C483        C585   1.432       .  S
C484        O779   1.260       .  A
C484        C581   1.427       .  S
C485        C487   1.556       .  S
C485        C489   1.551       .  S
C485        C488   1.601       .  S
C485        C555   1.726       .  S
C486        C490   1.547       .  S
C486        C492   1.549       .  S
C486        C491   1.596       .  S
C486        C554   1.730       .  S
C487        C495   1.381       .  A
C488        C499   1.410       .  A
C489        C503   1.376       .  A
C490        C791   1.433       .  A
C490        C493   1.368       .  A
C491        C792   1.443       .  A
C491        C497   1.407       .  A
C492        C793   1.434       .  A
C492        C500   1.372       .  A
C493        N494   1.350       .  A
C493        H506   1.082       .  S
N494        C799   1.358       .  A
N494        C588   1.400       .  S
C495        H496   1.082       .  S
C497        N498   1.376       .  A
C497        H507   1.081       .  S
N498        C803   1.380       .  A
N498        N521   1.452       .  S
C499        H505   1.081       .  S
C500        N501   1.353       .  A
C500        H502   1.082       .  S
N501        C807   1.352       .  A
N501        C592   1.396       .  S
C503        H504   1.082       .  S
C508        C510   1.556       .  S
C508        C512   1.553       .  S
C508        C511   1.601       .  S
C508        C531   1.731       .  S
C509        C513   1.545       .  S
C509        C515   1.542       .  S
C509        C514   1.604       .  S
C509        C532   1.733       .  S
C510        C518   1.378       .  A
C511        C522   1.410       .  A
C512        C526   1.375       .  A
C513        C814   1.437       .  A
C513        C516   1.364       .  A
C514        C815   1.442       .  A
C514        C520   1.410       .  A
C515        C816   1.432       .  A
C515        C523   1.366       .  A
C516        N517   1.347       .  A
C516        H529   1.081       .  S
N517        C822   1.358       .  A
N517        C584   1.398       .  S
C518        H519   1.081       .  S
C520        N521   1.379       .  A
C520        H530   1.082       .  S
N521        C826   1.377       .  A
C522        H528   1.081       .  S
C523        N524   1.348       .  A
C523        H525   1.082       .  S
N524        C830   1.356       .  A
N524        C580   1.396       .  S
C526        H527   1.081       .  S
C531        C533   1.549       .  S
C531        C535   1.549       .  S
C531        C534   1.601       .  S
C532        C536   1.563       .  S
C532        C538   1.558       .  S
C532        C537   1.604       .  S
C533        C541   1.370       .  A
C533        C536   1.435       .  A
C534        C545   1.410       .  A
C534        C537   1.442       .  A
C535        C549   1.372       .  A
C535        C538   1.431       .  A
C536        C539   1.383       .  A
C537        C543   1.412       .  A
C538        C546   1.382       .  A
C539        N540   1.355       .  A
C539        H552   1.080       .  S
N540        C541   1.349       .  A
N540        C597   1.400       .  S
C541        H542   1.081       .  S
C543        N544   1.379       .  A
C543        H553   1.082       .  S
N544        C545   1.378       .  A
N544        N567   1.454   1_565  S
C545        H551   1.081       .  S
C546        N547   1.356       .  A
C546        H548   1.082       .  S
N547        C549   1.351       .  A
N547        C596   1.401       .  S
C549        H550   1.082       .  S
C554        C556   1.561       .  S
C554        C558   1.558       .  S
C554        C557   1.601       .  S
C555        C559   1.546       .  S
C555        C561   1.541       .  S
C555        C560   1.601       .  S
C556        C564   1.382       .  A
C556        C559   1.434       .  A
C557        C568   1.411       .  A
C557        C560   1.441       .  A
C558        C572   1.379       .  A
C558        C561   1.431       .  A
C559        C562   1.367       .  A
C560        C566   1.410       .  A
C561        C569   1.366       .  A
C562        N563   1.350       .  A
C562        H575   1.082       .  S
N563        C564   1.358       .  A
N563        C608   1.399       .  S
C564        H565   1.082       .  S
C566        N567   1.378       .  A
C566        H576   1.082       .  S
N567        C568   1.378       .  A
C568        H574   1.081       .  S
C569        N570   1.349       .  A
C569        H571   1.082       .  S
N570        C572   1.355       .  A
N570        C604   1.395       .  S
C572        H573   1.082       .  S
C577        C578   1.202       .  T
C578        C579   1.406       .  S
C579        C580   1.202       .  T
C581        C582   1.202       .  T
C582        C583   1.407       .  S
C583        C584   1.203       .  T
C585        C586   1.205       .  T
C586        C587   1.411       .  S
C587        C588   1.205       .  T
C589        C590   1.200       .  T
C590        C591   1.404       .  S
C591        C592   1.201       .  T
C593        C594   1.206       .  T
C594        C595   1.412       .  S
C595        C596   1.206       .  T
C597        C598   1.204       .  T
C598        C599   1.409       .  S
C599        C600   1.203       .  T
C601        C602   1.200       .  T
C602        C603   1.403       .  S
C603        C604   1.200       .  T
C605        C606   1.204       .  T
C606        C607   1.409       .  S
C607        C608   1.204       .  T
O609        V617   1.890       .  S
O609        C619   1.261       .  A
O610        V769   1.895       .  S
O610        C620   1.262       .  A
O611        V617   1.891       .  S
O611        C621   1.261       .  A
O612        V769   1.894       .  S
O612        C622   1.262       .  A
O613        V618   1.897       .  S
O613        C622   1.262       .  A
O614        V770   1.898   1_554  S
O614        C621   1.262       .  A
O615        V618   1.895       .  S
O615        C620   1.261       .  A
O616        V770   1.898   1_554  S
O616        C619   1.262       .  A
V617        O762   1.895   1_554  S
V617        O764   1.891   1_554  S
V617        V770   2.092   1_554  T
V618        O766   1.891       .  S
V618        O768   1.898       .  S
V618        V769   2.092       .  T
C619        C757   1.428       .  S
C620        C745   1.427       .  S
C621        C752   1.428       .  S
C622        C753   1.430       .  S
O623        V631   1.908   1_565  S
O623        C633   1.265       .  A
O624        V783   1.898   1_544  S
O624        C634   1.262       .  A
O625        V631   1.900       .  S
O625        C635   1.262       .  A
O626        V783   1.887   1_554  S
O626        C636   1.259       .  A
O627        V784   1.889       .  S
O628        V632   1.893   1_545  S
O629        V784   1.894   1_545  S
O630        V632   1.890       .  S
V631        O776   1.900       .  S
V631        O778   1.903   1_545  S
V631        V936   2.091       .  T
V632        O779   1.892       .  S
V632        O781   1.897   1_565  S
C633        O934   1.260       .  A
C633        C729   1.434       .  S
C634        O933   1.263       .  A
C634        C741   1.433       .  S
C635        O932   1.262       .  A
C635        C737   1.431       .  S
C636        O931   1.263       .  A
C636        C733   1.423       .  S
C637        C639   1.546       .  S
C637        C641   1.552       .  S
C637        C640   1.598       .  S
C637        C707   1.731       .  S
C638        C642   1.562       .  S
C638        C644   1.558       .  S
C638        C643   1.602       .  S
C638        C706   1.740       .  S
C639        C647   1.367       .  A
C640        C651   1.408       .  A
C641        C655   1.375       .  A
C642        C943   1.438       .  A
C642        C645   1.382       .  A
C643        C944   1.444       .  A
C643        C649   1.410       .  A
C644        C945   1.434       .  A
C644        C652   1.382       .  A
C645        N646   1.354       .  A
C645        H658   1.080       .  S
N646        C951   1.351       .  A
N646        C740   1.402       .  S
C647        H648   1.081       .  S
C649        N650   1.378       .  A
C649        H659   1.081       .  S
N650        C955   1.379       .  A
N650        N673   1.454       .  S
C651        H657   1.081       .  S
C652        N653   1.357       .  A
C652        H654   1.082       .  S
N653        C959   1.350       .  A
N653        C744   1.400       .  S
C655        H656   1.082       .  S
C660        C662   1.554       .  S
C660        C664   1.559       .  S
C660        C663   1.606       .  S
C660        C683   1.740       .  S
C661        C665   1.554       .  S
C661        C667   1.557       .  S
C661        C666   1.603       .  S
C661        C684   1.735       .  S
C662        C670   1.374       .  A
C663        C674   1.412       .  A
C664        C678   1.376       .  A
C665        C966   1.434       .  A
C665        C668   1.378       .  A
C666        C967   1.442       .  A
C666        C672   1.411       .  A
C667        C968   1.435       .  A
C667        C675   1.376       .  A
C668        N669   1.354       .  A
C668        H681   1.081       .  S
N669        C974   1.348       .  A
N669        C736   1.394       .  S
C670        H671   1.082       .  S
C672        N673   1.379       .  A
C672        H682   1.081       .  S
N673        C978   1.378       .  A
C674        H680   1.081       .  S
C675        N676   1.352       .  A
C675        H677   1.082       .  S
N676        C982   1.358       .  A
N676        C732   1.404       .  S
C678        H679   1.081       .  S
C683        C685   1.558       .  S
C683        C687   1.562       .  S
C683        C686   1.603       .  S
C684        C688   1.548       .  S
C684        C690   1.549       .  S
C684        C689   1.600       .  S
C685        C693   1.379       .  A
C685        C688   1.434       .  A
C686        C697   1.411       .  A
C686        C689   1.443       .  A
C687        C701   1.382       .  A
C687        C690   1.438       .  A
C688        C691   1.371       .  A
C689        C695   1.408       .  A
C690        C698   1.369       .  A
C691        N692   1.352       .  A
C691        H704   1.082       .  S
N692        C693   1.355       .  A
N692        C749   1.399       .  S
C693        H694   1.081       .  S
C695        N696   1.377       .  A
C695        H705   1.081       .  S
N696        C697   1.379       .  A
N696        N719   1.452   1_565  S
C697        H703   1.082       .  S
C698        N699   1.348       .  A
C698        H700   1.081       .  S
N699        C701   1.355       .  A
N699        C748   1.399       .  S
C701        H702   1.080       .  S
C706        C708   1.555       .  S
C706        C710   1.551       .  S
C706        C709   1.604       .  S
C707        C711   1.553       .  S
C707        C713   1.557       .  S
C707        C712   1.598       .  S
C708        C716   1.374       .  A
C708        C711   1.435       .  A
C709        C720   1.410       .  A
C709        C712   1.443       .  A
C710        C724   1.371       .  A
C710        C713   1.433       .  A
C711        C714   1.375       .  A
C712        C718   1.409       .  A
C713        C721   1.380       .  A
C714        N715   1.353       .  A
C714        H727   1.082       .  S
N715        C716   1.355       .  A
N715        C760   1.399       .  S
C716        H717   1.082       .  S
C718        N719   1.377       .  A
C718        H728   1.081       .  S
N719        C720   1.379       .  A
C720        H726   1.081       .  S
C721        N722   1.355       .  A
C721        H723   1.082       .  S
N722        C724   1.351       .  A
N722        C756   1.399       .  S
C724        H725   1.082       .  S
C729        C730   1.206       .  T
C730        C731   1.414       .  S
C731        C732   1.207       .  T
C733        C734   1.199       .  T
C734        C735   1.402       .  S
C735        C736   1.199       .  T
C737        C738   1.205       .  T
C738        C739   1.412       .  S
C739        C740   1.206       .  T
C741        C742   1.205       .  T
C742        C743   1.411       .  S
C743        C744   1.205       .  T
C745        C746   1.201       .  T
C746        C747   1.406       .  S
C747        C748   1.203       .  T
C749        C750   1.203       .  T
C750        C751   1.408       .  S
C751        C752   1.203       .  T
C753        C754   1.203       .  T
C754        C755   1.408       .  S
C755        C756   1.203       .  T
C757        C758   1.203       .  T
C758        C759   1.408       .  S
C759        C760   1.203       .  T
O761        V769   1.899       .  S
O761        C771   1.262       .  A
O762        C772   1.261       .  A
O763        V769   1.890       .  S
O763        C773   1.259       .  A
O764        C774   1.260       .  A
O765        V770   1.897       .  S
O765        C774   1.263       .  A
O766        C773   1.261       .  A
O767        V770   1.896       .  S
O767        C772   1.263       .  A
O768        C771   1.263       .  A
C771        C909   1.433       .  S
C772        C897   1.429       .  S
C773        C904   1.420       .  S
C774        C905   1.426       .  S
O775        V783   1.890       .  S
O775        C785   1.261       .  A
O776        C786   1.264       .  A
O777        V783   1.892   1_545  S
O777        C787   1.261       .  A
O778        C788   1.264       .  A
O780        V784   1.895   1_546  S
O782        V784   1.891   1_556  S
V783       V1088   2.091   1_556  T
C785       O1086   1.261       .  A
C785        C881   1.426       .  S
C786       O1085   1.259       .  A
C786        C893   1.428       .  S
C787       O1084   1.264       .  A
C787        C889   1.435       .  S
C788       O1083   1.262       .  A
C788        C885   1.436       .  S
C789        C791   1.561       .  S
C789        C793   1.555       .  S
C789        C792   1.607       .  S
C789        C859   1.740       .  S
C790        C794   1.556       .  S
C790        C796   1.548       .  S
C790        C795   1.603       .  S
C790        C858   1.740       .  S
C791        C799   1.383       .  A
C792        C803   1.412       .  A
C793        C807   1.375       .  A
C794       C1095   1.437       .  A
C794        C797   1.375       .  A
C795       C1096   1.444       .  A
C795        C801   1.411       .  A
C796       C1097   1.432       .  A
C796        C804   1.369       .  A
C797        N798   1.354       .  A
C797        H810   1.082       .  S
N798       C1103   1.357       .  A
N798        C892   1.403       .  S
C799        H800   1.082       .  S
C801        N802   1.379       .  A
C801        H811   1.081       .  S
N802       C1107   1.378       .  A
N802        N825   1.455       .  S
C803        H809   1.082       .  S
C804        N805   1.351       .  A
C804        H806   1.082       .  S
N805       C1111   1.354       .  A
N805        C896   1.397       .  S
C807        H808   1.082       .  S
C812        C814   1.566       .  S
C812        C816   1.560       .  S
C812        C815   1.597       .  S
C812        C835   1.734       .  S
C813        C817   1.544       .  S
C813        C819   1.553       .  S
C813        C818   1.603       .  S
C813        C836   1.732       .  S
C814        C822   1.386       .  A
C815        C826   1.409       .  A
C816        C830   1.381       .  A
C817       C1118   1.433       .  A
C817        C820   1.367       .  A
C818       C1119   1.442       .  A
C818        C824   1.411       .  A
C819       C1120   1.433       .  A
C819        C827   1.374       .  A
C820        N821   1.348       .  A
C820        H833   1.082       .  S
N821       C1126   1.361       .  A
N821        C888   1.403       .  S
C822        H823   1.081       .  S
C824        N825   1.378       .  A
C824        H834   1.082       .  S
N825       C1130   1.380       .  A
C826        H832   1.081       .  S
C827        N828   1.353       .  A
C827        H829   1.080       .  S
N828       C1134   1.352       .  A
N828        C884   1.398       .  S
C830        H831   1.081       .  S
C835        C837   1.547       .  S
C835        C839   1.555       .  S
C835        C838   1.598       .  S
C836        C840   1.550       .  S
C836        C842   1.558       .  S
C836        C841   1.601       .  S
C837        C845   1.368       .  A
C837        C840   1.431       .  A
C838        C849   1.408       .  A
C838        C841   1.442       .  A
C839        C853   1.372       .  A
C839        C842   1.437       .  A
C840        C843   1.374       .  A
C841        C847   1.410       .  A
C842        C850   1.379       .  A
C843        N844   1.352       .  A
C843        H856   1.082       .  S
N844        C845   1.351       .  A
N844        C901   1.392       .  S
C845        H846   1.081       .  S
C847        N848   1.378       .  A
C847        H857   1.081       .  S
N848        C849   1.377       .  A
N848        N871   1.452   1_565  S
C849        H855   1.082       .  S
C850        N851   1.354       .  A
C850        H852   1.081       .  S
N851        C853   1.352       .  A
N851        C900   1.399       .  S
C853        H854   1.081       .  S
C858        C860   1.563       .  S
C858        C862   1.557       .  S
C858        C861   1.601       .  S
C859        C863   1.552       .  S
C859        C865   1.543       .  S
C859        C864   1.603       .  S
C860        C868   1.383       .  A
C860        C863   1.438       .  A
C861        C872   1.409       .  A
C861        C864   1.445       .  A
C862        C876   1.379       .  A
C862        C865   1.434       .  A
C863        C866   1.371       .  A
C864        C870   1.410       .  A
C865        C873   1.366       .  A
C866        N867   1.350       .  A
C866        H879   1.081       .  S
N867        C868   1.356       .  A
N867        C912   1.402       .  S
C868        H869   1.081       .  S
C870        N871   1.379       .  A
C870        H880   1.081       .  S
N871        C872   1.377       .  A
C872        H878   1.082       .  S
C873        N874   1.349       .  A
C873        H875   1.082       .  S
N874        C876   1.355       .  A
N874        C908   1.395       .  S
C876        H877   1.081       .  S
C881        C882   1.202       .  T
C882        C883   1.407       .  S
C883        C884   1.203       .  T
C885        C886   1.207       .  T
C886        C887   1.415       .  S
C887        C888   1.208       .  T
C889        C890   1.207       .  T
C890        C891   1.414       .  S
C891        C892   1.207       .  T
C893        C894   1.202       .  T
C894        C895   1.407       .  S
C895        C896   1.202       .  T
C897        C898   1.203       .  T
C898        C899   1.408       .  S
C899        C900   1.203       .  T
C901        C902   1.197       .  T
C902        C903   1.399       .  S
C903        C904   1.197       .  T
C905        C906   1.201       .  T
C906        C907   1.404       .  S
C907        C908   1.200       .  T
C909        C910   1.205       .  T
C910        C911   1.411       .  S
C911        C912   1.206       .  T
O913        V921   1.898       .  S
O913        C923   1.263       .  A
O914       V1073   1.892       .  S
O914        C924   1.262       .  A
O915        V921   1.897       .  S
O915        C925   1.263       .  A
O916       V1073   1.892       .  S
O916        C926   1.261       .  A
O917        V922   1.895       .  S
O917        C926   1.261       .  A
O918       V1074   1.893   1_554  S
O918        C925   1.261       .  A
O919        V922   1.893       .  S
O919        C924   1.260       .  A
O920       V1074   1.890   1_554  S
O920        C923   1.260       .  A
V921       O1066   1.900   1_554  S
V921       O1068   1.896   1_554  S
V921       V1074   2.092   1_554  T
V922       O1070   1.896       .  S
V922       O1072   1.890       .  S
V922       V1073   2.092       .  T
C923       C1061   1.427       .  S
C924       C1049   1.422       .  S
C925       C1056   1.429       .  S
C926       C1057   1.425       .  S
O927        V935   1.897   1_565  S
O927        C937   1.262       .  A
O928       V1087   1.893   1_554  S
O928        C938   1.261       .  A
O929        V935   1.897       .  S
O929        C939   1.262       .  A
O930       V1087   1.899   1_564  S
O930        C940   1.262       .  A
O931       V1088   1.899       .  S
O932        V936   1.893       .  S
O933       V1088   1.900   1_545  S
O934        V936   1.888   1_565  S
V935       O1080   1.893       .  S
V935       O1082   1.896   1_545  S
V936       O1083   1.896   1_545  S
V936       O1085   1.890       .  S
C937       C1033   1.424       .  S
C938       C1045   1.426       .  S
C939       C1041   1.428       .  S
C940       C1037   1.431       .  S
C941        C943   1.554       .  S
C941        C945   1.549       .  S
C941        C944   1.605       .  S
C941       C1011   1.743       .  S
C942        C946   1.564       .  S
C942        C948   1.560       .  S
C942        C947   1.600       .  S
C942       C1010   1.735       .  S
C943        C951   1.374       .  A
C944        C955   1.411       .  A
C945        C959   1.370       .  A
C946        C949   1.381       .  A
C947        C953   1.410       .  A
C948        C956   1.383       .  A
C949        N950   1.354       .  A
C949        H962   1.081       .  S
N950       C1044   1.399       .  S
C951        H952   1.080       .  S
C953        N954   1.378       .  A
C953        H963   1.081       .  S
N954        N977   1.452       .  S
C955        H961   1.081       .  S
C956        N957   1.357       .  A
C956        H958   1.081       .  S
N957       C1048   1.398       .  S
C959        H960   1.082       .  S
C964        C966   1.546       .  S
C964        C968   1.561       .  S
C964        C967   1.600       .  S
C964        C987   1.736       .  S
C965        C969   1.557       .  S
C965        C971   1.555       .  S
C965        C970   1.604       .  S
C965        C988   1.740       .  S
C966        C974   1.364       .  A
C967        C978   1.410       .  A
C968        C982   1.381       .  A
C969        C972   1.379       .  A
C970        C976   1.410       .  A
C971        C979   1.376       .  A
C972        N973   1.354       .  A
C972        H985   1.082       .  S
N973       C1040   1.401       .  S
C974        H975   1.081       .  S
C976        N977   1.378       .  A
C976        H986   1.081       .  S
C978        H984   1.081       .  S
C979        N980   1.353       .  A
C979        H981   1.081       .  S
N980       C1036   1.396       .  S
C982        H983   1.082       .  S
C987        C989   1.566       .  S
C987        C991   1.546       .  S
C987        C990   1.598       .  S
C988        C992   1.543       .  S
C988        C994   1.555       .  S
C988        C993   1.605       .  S
C989        C997   1.384       .  A
C989        C992   1.434       .  A
C990       C1001   1.408       .  A
C990        C993   1.444       .  A
C991       C1005   1.371       .  A
C991        C994   1.435       .  A
C992        C995   1.366       .  A
C993        C999   1.411       .  A
C994       C1002   1.373       .  A
C995        N996   1.348       .  A
C995       H1008   1.082       .  S
N996        C997   1.358       .  A
N996       C1053   1.399       .  S
C997        H998   1.081       .  S
C999       N1000   1.379       .  A
C999       H1009   1.082       .  S
N1000      C1001   1.377       .  A
N1000      N1023   1.453   1_565  S
C1001      H1007   1.081       .  S
C1002      N1003   1.354       .  A
C1002      H1004   1.082       .  S
N1003      C1005   1.351       .  A
N1003      C1052   1.394       .  S
C1005      H1006   1.082       .  S
C1010      C1012   1.543       .  S
C1010      C1014   1.547       .  S
C1010      C1013   1.598       .  S
C1011      C1015   1.563       .  S
C1011      C1017   1.560       .  S
C1011      C1016   1.605       .  S
C1012      C1020   1.366       .  A
C1012      C1015   1.436       .  A
C1013      C1024   1.408       .  A
C1013      C1016   1.444       .  A
C1014      C1028   1.367       .  A
C1014      C1017   1.435       .  A
C1015      C1018   1.382       .  A
C1016      C1022   1.411       .  A
C1017      C1025   1.380       .  A
C1018      N1019   1.357       .  A
C1018      H1031   1.082       .  S
N1019      C1020   1.349       .  A
N1019      C1064   1.397       .  S
C1020      H1021   1.082       .  S
C1022      N1023   1.379       .  A
C1022      H1032   1.082       .  S
N1023      C1024   1.377       .  A
C1024      H1030   1.081       .  S
C1025      N1026   1.355       .  A
C1025      H1027   1.081       .  S
N1026      C1028   1.348       .  A
N1026      C1060   1.397       .  S
C1028      H1029   1.080       .  S
C1033      C1034   1.199       .  T
C1034      C1035   1.403       .  S
C1035      C1036   1.200       .  T
C1037      C1038   1.205       .  T
C1038      C1039   1.411       .  S
C1039      C1040   1.205       .  T
C1041      C1042   1.202       .  T
C1042      C1043   1.407       .  S
C1043      C1044   1.203       .  T
C1045      C1046   1.202       .  T
C1046      C1047   1.407       .  S
C1047      C1048   1.203       .  T
C1049      C1050   1.199       .  T
C1050      C1051   1.401       .  S
C1051      C1052   1.199       .  T
C1053      C1054   1.204       .  T
C1054      C1055   1.410       .  S
C1055      C1056   1.204       .  T
C1057      C1058   1.201       .  T
C1058      C1059   1.406       .  S
C1059      C1060   1.202       .  T
C1061      C1062   1.202       .  T
C1062      C1063   1.406       .  S
C1063      C1064   1.202       .  T
O1065      V1073   1.897       .  S
O1065      C1075   1.262       .  A
O1066      C1076   1.263       .  A
O1067      V1073   1.890       .  S
O1067      C1077   1.260       .  A
O1068      C1078   1.261       .  A
O1069      V1074   1.892       .  S
O1069      C1078   1.261       .  A
O1070      C1077   1.262       .  A
O1071      V1074   1.891       .  S
O1071      C1076   1.261       .  A
O1072      C1075   1.261       .  A
C1075      C1213   1.427       .  S
C1076      C1201   1.429       .  S
C1077      C1208   1.425       .  S
C1078      C1209   1.426       .  S
O1079      V1087   1.899   1_565  S
O1079      C1089   1.263   1_655  A
O1080      C1090   1.262   1_655  A
O1081      V1087   1.893       .  S
O1081      C1091   1.262   1_655  A
O1082      C1092   1.263   1_655  A
O1084      V1088   1.903   1_546  S
O1086      V1088   1.896   1_556  S
C1089      C1185   1.431       .  S
C1090      C1197   1.421       .  S
C1091      C1193   1.424       .  S
C1092      C1189   1.426       .  S
C1093      C1095   1.562       .  S
C1093      C1097   1.556       .  S
C1093      C1096   1.603       .  S
C1093      C1163   1.739       .  S
C1094      C1098   1.552       .  S
C1094      C1100   1.549       .  S
C1094      C1099   1.604       .  S
C1094      C1162   1.738   1_455  S
C1095      C1103   1.381       .  A
C1096      C1107   1.412       .  A
C1097      C1111   1.379       .  A
C1098      C1101   1.370       .  A
C1099      C1105   1.410       .  A
C1100      C1108   1.369       .  A
C1101      N1102   1.353       .  A
C1101      H1114   1.082       .  S
N1102      C1196   1.394       .  S
C1103      H1104   1.082       .  S
C1105      N1106   1.379       .  A
C1105      H1115   1.081       .  S
N1106      N1129   1.452       .  S
C1107      H1113   1.082       .  S
C1108      N1109   1.352       .  A
C1108      H1110   1.082       .  S
N1109      C1200   1.393       .  S
C1111      H1112   1.081       .  S
C1116      C1118   1.568       .  S
C1116      C1120   1.553       .  S
C1116      C1119   1.604       .  S
C1116      C1139   1.733       .  S
C1117      C1121   1.544       .  S
C1117      C1123   1.544       .  S
C1117      C1122   1.599       .  S
C1117      C1140   1.732   1_455  S
C1118      C1126   1.388       .  A
C1119      C1130   1.412       .  A
C1120      C1134   1.376       .  A
C1121      C1124   1.366       .  A
C1122      C1128   1.408       .  A
C1123      C1131   1.367       .  A
C1124      N1125   1.348       .  A
C1124      H1137   1.081       .  S
N1125      C1192   1.396       .  S
C1126      H1127   1.081       .  S
C1128      N1129   1.377       .  A
C1128      H1138   1.081       .  S
C1130      H1136   1.081       .  S
C1131      N1132   1.346       .  A
C1131      H1133   1.081       .  S
N1132      C1188   1.401       .  S
C1134      H1135   1.081       .  S
C1139      C1141   1.544       .  S
C1139      C1143   1.553       .  S
C1139      C1142   1.600       .  S
C1140      C1144   1.559       .  S
C1140      C1146   1.555       .  S
C1140      C1145   1.600       .  S
C1141      C1149   1.366       .  A
C1141      C1144   1.434       .  A
C1142      C1153   1.409       .  A
C1142      C1145   1.442       .  A
C1143      C1157   1.373       .  A
C1143      C1146   1.433       .  A
C1144      C1147   1.381       .  A
C1145      C1151   1.409       .  A
C1146      C1154   1.377       .  A
C1147      N1148   1.355       .  A
C1147      H1160   1.081       .  S
N1148      C1149   1.349       .  A
N1148      C1205   1.396       .  S
C1149      H1150   1.082       .  S
C1151      N1152   1.377       .  A
C1151      H1161   1.081       .  S
N1152      C1153   1.378       .  A
N1152      N1175   1.452   1_565  S
C1153      H1159   1.082       .  S
C1154      N1155   1.353       .  A
C1154      H1156   1.081       .  S
N1155      C1157   1.353       .  A
N1155      C1204   1.399       .  S
C1157      H1158   1.081       .  S
C1162      C1164   1.555       .  S
C1162      C1166   1.555       .  S
C1162      C1165   1.603       .  S
C1163      C1167   1.552       .  S
C1163      C1169   1.552       .  S
C1163      C1168   1.600       .  S
C1164      C1172   1.377       .  A
C1164      C1167   1.435       .  A
C1165      C1176   1.410       .  A
C1165      C1168   1.444       .  A
C1166      C1180   1.377       .  A
C1166      C1169   1.437       .  A
C1167      C1170   1.373       .  A
C1168      C1174   1.408       .  A
C1169      C1177   1.371       .  A
C1170      N1171   1.352       .  A
C1170      H1183   1.081       .  S
N1171      C1172   1.353       .  A
N1171      C1216   1.398       .  S
C1172      H1173   1.081       .  S
C1174      N1175   1.377       .  A
C1174      H1184   1.081       .  S
N1175      C1176   1.378       .  A
C1176      H1182   1.082       .  S
C1177      N1178   1.352       .  A
C1177      H1179   1.081       .  S
N1178      C1180   1.353       .  A
N1178      C1212   1.397       .  S
C1180      H1181   1.081       .  S
C1185      C1186   1.204       .  T
C1186      C1187   1.411       .  S
C1187      C1188   1.205       .  T
C1189      C1190   1.201       .  T
C1190      C1191   1.405       .  S
C1191      C1192   1.201       .  T
C1193      C1194   1.199       .  T
C1194      C1195   1.402       .  S
C1195      C1196   1.199       .  T
C1197      C1198   1.199       .  T
C1198      C1199   1.401       .  S
C1199      C1200   1.198       .  T
C1201      C1202   1.203       .  T
C1202      C1203   1.409       .  S
C1203      C1204   1.204       .  T
C1205      C1206   1.201       .  T
C1206      C1207   1.404       .  S
C1207      C1208   1.200       .  T
C1209      C1210   1.201       .  T
C1210      C1211   1.405       .  S
C1211      C1212   1.202       .  T
C1213      C1214   1.202       .  T
C1214      C1215   1.406       .  S
C1215      C1216   1.203       .  T
