geometry optimzed in LAMMPS
_audit_creation_date              2020-11-30 
_audit_creation_method            'lammps2cif' 
_symmetry_space_group_name_H-M    'P1' 
_symmetry_Int_Tables_number       1 
_symmetry_cell_setting            triclinic 
loop_ 
_symmetry_equiv_pos_as_xyz 
  x,y,z 
_cell_length_a                    49.03063972 
_cell_length_b                    48.46445321637923 
_cell_length_c                    30.273184579011865 
_cell_angle_alpha                 88.02445457086526 
_cell_angle_beta                  90.42187118281782 
_cell_angle_gamma                 90.21002903458898 
loop_ 
_atom_site_label 
_atom_site_type_symbol 
_atom_site_fract_x 
_atom_site_fract_y 
_atom_site_fract_z 
_atom_site_charge 
Zr1        Zr  0.83987928  0.06828591  0.03488122     2.17500
O2          O  0.87534336  0.06799257  0.09200751    -0.51300
O3          O  0.85506437  0.02004701  0.03901871    -0.74500
O4          O  0.82186039  0.06879856  0.11040646    -0.81300
O5          O  0.88933051  0.09933478  0.94942944    -0.83000
O6          O  0.77551218  0.07014383  0.10886858    -0.78600
O7          O  0.88489704  0.08828332  0.02263703    -0.90300
O8          O  0.83143123  0.99612056  0.98815074    -0.76200
O9          O  0.79985831  0.04149648  0.02273439    -0.85700
O10         O  0.84314414  0.05327919  0.96069343    -0.85400
O11         O  0.80276159  0.10019518  0.04342565    -0.72200
O12         O  0.84266824  0.10907169  0.98741920    -0.84300
Zr13       Zr  0.76640276  0.09829446  0.91151687     2.26400
Zr14       Zr  0.76254388  0.07275180  0.03121647     2.06300
Zr15       Zr  0.84468627  0.09402294  0.91339208     2.10000
Zr16       Zr  0.80249265  0.02755124  0.94806559     1.78800
O17         O  0.86079406  0.13798904  0.88198733    -0.93100
O18         O  0.77107130  0.99166087  0.97435106    -0.40900
O19         O  0.80410513  0.06794406  0.90169123    -0.77500
O20         O  0.76418156  0.05658091  0.95722347    -0.96200
O21         O  0.76466474  0.11368602  0.98495967    -0.89500
O22         O  0.80693576  0.12509539  0.92051633    -0.92400
C23         C  0.84914568  0.99782359  0.01897409     1.01400
C24         C  0.89876047  0.09721498  0.98927714     1.14300
C25         C  0.79851724  0.06997812  0.12943911     1.05100
O26         O  0.74515046  0.02953627  0.06343434    -0.94500
O27         O  0.71670193  0.06936182  0.99918855    -0.90300
O28         O  0.72045547  0.08190106  0.92642216    -0.83400
C29         C  0.70674971  0.07308963  0.95996032     1.11700
O30         O  0.84106884  0.16037422  0.03909703    -0.96500
Zr31       Zr  0.80527296  0.13990235  0.99455923     1.88900
O32         O  0.74644963  0.14434779  0.91539863    -0.73100
O33         O  0.73190110  0.10200522  0.07159420    -0.52400
O34         O  0.78911309  0.16320449  0.05936534    -0.97100
O35         O  0.82588558  0.17737526  0.95045914    -0.54300
O36         O  0.76645160  0.16720077  0.97106415    -0.73700
C37         C  0.74798380  0.16473886  0.94134475     0.98700
O38         O  0.73741522  0.10170221  0.84561342    -0.62500
O39         O  0.87773257  0.06912457  0.87024028    -0.57300
O40         O  0.78283474  0.09308483  0.83632371    -0.94000
O41         O  0.82911051  0.08975451  0.83697046    -0.92400
O42         O  0.83003619  0.00579395  0.89252623    -0.92700
O43         O  0.77767516  0.00789498  0.88657089    -0.91500
C44         C  0.80580123  0.08969930  0.81702182     1.17500
H45         H  0.85927457  0.04221680  0.95682605     0.33500
H46         H  0.74899938  0.04466045  0.95056248     0.44300
H47         H  0.80747411  0.14027978  0.89896179     0.37800
H48         H  0.80271704  0.10833117  0.07207369     0.34300
H49         H  0.78030950  0.97408706  0.96818697     0.26100
H50         H  0.72132492  0.11249635  0.04869961     0.32100
H51         H  0.78808231  0.18295584  0.05000508     0.38000
H52         H  0.83526291  0.02109545  0.87173131     0.32400
H53         H  0.89353036  0.08178810  0.86693886     0.31300
H54         H  0.87278097  0.13290417  0.85741676     0.33000
H55         H  0.84579027  0.17419535  0.95277714     0.31900
H56         H  0.75848052  0.01352937  0.89047253     0.35900
H57         H  0.72821759  0.08355732  0.84358449     0.28700
H58         H  0.87188157  0.05134349  0.11104628     0.32900
H59         H  0.84249193  0.14786684  0.06556397     0.35800
H60         H  0.88431041  0.05389618  0.89012635     0.28400
H61         H  0.72265654  0.11465811  0.85276095     0.41200
H62         H  0.72823136  0.03472118  0.07870282     0.31300
H63         H  0.77155938  0.99267284  0.00693973     0.38900
H64         H  0.82267787  0.19413525  0.96745814     0.30800
H65         H  0.71855109  0.08915037  0.08563056     0.30800
H66         H  0.87143808  0.08379829  0.11083893     0.31100
Zr67       Zr  0.84299931  0.06935078  0.53042450     2.17500
O68         O  0.88073667  0.06500826  0.58335819    -0.51300
O69         O  0.86233081  0.02265362  0.52577877    -0.74500
O70         O  0.82746086  0.06725781  0.60745261    -0.81300
O71         O  0.88879629  0.10524885  0.44495492    -0.83000
O72         O  0.78112085  0.06728283  0.60957639    -0.78600
O73         O  0.88596855  0.09372396  0.51814787    -0.90300
O74         O  0.83867374  0.99919740  0.47437761    -0.76200
O75         O  0.80326223  0.04149276  0.52058002    -0.85700
O76         O  0.84433125  0.05690491  0.45489503    -0.85400
O77         O  0.80483874  0.09933854  0.54424854    -0.72200
O78         O  0.84268932  0.11176246  0.48647926    -0.84300
Zr79       Zr  0.76549831  0.09944066  0.41389937     2.26400
Zr80       Zr  0.76496412  0.07115772  0.53309566     2.06300
Zr81       Zr  0.84343724  0.09908732  0.41120217     2.10000
Zr82       Zr  0.80437019  0.02940395  0.44497592     1.78800
O83         O  0.85463297  0.14493778  0.38097451    -0.93100
O84         O  0.77875326  0.99083010  0.47789137    -0.40900
O85         O  0.80410629  0.07094382  0.40091681    -0.77500
O86         O  0.76533783  0.05681372  0.45798161    -0.96200
O87         O  0.76425770  0.11293285  0.48861647    -0.89500
O88         O  0.80469353  0.12803550  0.42308573    -0.92400
C89         C  0.85777538  0.00128575  0.50275295     1.01400
C90         C  0.89906631  0.10322336  0.48432741     1.14300
C91         C  0.80470979  0.06758183  0.62845660     1.05100
O92         O  0.74661777  0.02782979  0.56324189    -0.94500
O93         O  0.71826227  0.06849171  0.50300660    -0.90300
O94         O  0.72032736  0.08176629  0.43027406    -0.83400
C95         C  0.70737606  0.07264363  0.46439623     1.11700
O96         O  0.83794668  0.16106160  0.54631486    -0.96500
Zr97       Zr  0.80397352  0.14040164  0.49853873     1.88900
O98         O  0.74583045  0.14565973  0.41864655    -0.73100
O99         O  0.73513447  0.09858915  0.57810253    -0.52400
O100        O  0.78499735  0.15968707  0.56487668    -0.97100
O101        O  0.82401982  0.18033189  0.45971149    -0.54300
O102        O  0.76476491  0.16752631  0.47636714    -0.73700
C103        C  0.74708031  0.16571783  0.44531986     0.98700
O104        O  0.73648726  0.10452182  0.34814471    -0.62500
O105        O  0.87644524  0.07870982  0.36244746    -0.57300
O106        O  0.78062668  0.09381581  0.33784495    -0.94000
O107        O  0.82698611  0.09386227  0.33560777    -0.92400
O108        O  0.82811956  0.00695006  0.38588624    -0.92700
O109        O  0.77404834  0.01205570  0.38807222    -0.91500
C110        C  0.80335801  0.09204860  0.31713537     1.17500
H111        H  0.86078229  0.04697226  0.44824072     0.33500
H112        H  0.75029353  0.04470144  0.45161784     0.44300
H113        H  0.80399873  0.14393080  0.40296632     0.37800
H114        H  0.80548433  0.10681285  0.57328583     0.34300
H115        H  0.78291038  0.97503972  0.45919068     0.26100
H116        H  0.72954428  0.08596423  0.60284481     0.32100
H117        H  0.78661664  0.17994906  0.56017412     0.38000
H118        H  0.82349939  0.98710449  0.38973117     0.32400
H119        H  0.89083330  0.09291149  0.35818208     0.31300
H120        H  0.87455820  0.14450843  0.37603755     0.33000
H121        H  0.84383778  0.17650024  0.45927051     0.31900
H122        H  0.77105335  0.02805850  0.36740167     0.35900
H123        H  0.72519544  0.08756455  0.34725086     0.28700
H124        H  0.87714572  0.04789192  0.60120205     0.32900
H125        H  0.85018461  0.14553773  0.55464297     0.35800
H126        H  0.88510838  0.06374378  0.38053916     0.28400
H127        H  0.72345093  0.11942932  0.35426726     0.41200
H128        H  0.75130053  0.01406252  0.54120444     0.31300
H129        H  0.78818121  0.98635589  0.50626668     0.38900
H130        H  0.82209121  0.19570720  0.48016210     0.30800
H131        H  0.74737370  0.11220320  0.59183390     0.30800
H132        H  0.87863409  0.08014138  0.60416006     0.31100
Zr133      Zr  0.56978798  0.34287569  0.83659582     2.17500
O134        O  0.56726932  0.37913848  0.77852055    -0.51300
O135        O  0.52320799  0.36108511  0.83642631    -0.74500
O136        O  0.57040053  0.32579393  0.76177523    -0.81300
O137        O  0.59934506  0.39408242  0.91671467    -0.83000
O138        O  0.57405499  0.27908082  0.76325405    -0.78600
O139        O  0.59061844  0.38716232  0.84417302    -0.90300
O140        O  0.49870999  0.33811880  0.88938755    -0.76200
O141        O  0.54362006  0.30209210  0.84909067    -0.85700
O142        O  0.55420600  0.34615389  0.91060460    -0.85400
O143        O  0.60229774  0.30625423  0.82854265    -0.72200
O144        O  0.60996086  0.34630422  0.88250021    -0.84300
Zr145      Zr  0.59840994  0.27005265  0.96262246     2.26400
Zr146      Zr  0.57563494  0.26512316  0.84219094     2.06300
Zr147      Zr  0.59401108  0.34907783  0.95633381     2.10000
Zr148      Zr  0.52861230  0.30475931  0.92363406     1.78800
O149        O  0.63663486  0.36444826  0.98937261    -0.93100
O150        O  0.49359701  0.27639135  0.88990070    -0.40900
O151        O  0.56779738  0.30799987  0.96999555    -0.77500
O152        O  0.55831523  0.26648437  0.91625987    -0.96200
O153        O  0.61496611  0.26764833  0.88930864    -0.89500
O154        O  0.62503225  0.31098306  0.95104196    -0.92400
C155        C  0.50145126  0.35676367  0.85898779     1.01400
C156        C  0.59824930  0.40225087  0.87569107     1.14300
C157        C  0.57297735  0.30275700  0.74256979     1.05100
O158        O  0.53164967  0.24609397  0.82092486    -0.94500
O159        O  0.57846448  0.21874438  0.87741718    -0.90300
O160        O  0.58358552  0.22308774  0.95127574    -0.83400
C161        C  0.57951320  0.20852276  0.91730178     1.11700
O162        O  0.66532772  0.34433654  0.83496371    -0.96500
Zr163      Zr  0.64091381  0.30857313  0.87716681     1.88900
O164        O  0.64370431  0.24887681  0.95962515    -0.73100
O165        O  0.60133764  0.23520380  0.79481168    -0.52400
O166        O  0.66193213  0.29224364  0.81030673    -0.97100
O167        O  0.67985490  0.32725936  0.91720390    -0.54300
O168        O  0.66616429  0.26803076  0.90111090    -0.73700
C169        C  0.66366491  0.24967666  0.93225686     0.98700
O170        O  0.59938504  0.24447756  0.03359417    -0.62500
O171        O  0.56970017  0.38573743  0.99231212    -0.57300
O172        O  0.59291223  0.28772571  0.03658959    -0.94000
O173        O  0.58763012  0.33437266  0.03367127    -0.92400
O174        O  0.50346207  0.32754591  0.98094863    -0.92700
O175        O  0.51001858  0.27492029  0.98246404    -0.91500
C176        C  0.58851777  0.31087805  0.05478485     1.17500
H177        H  0.54351613  0.36251324  0.91459167     0.33500
H178        H  0.54707790  0.25057567  0.92319353     0.44300
H179        H  0.63961664  0.31158289  0.97270260     0.37800
H180        H  0.61038922  0.30671335  0.79965525     0.34300
H181        H  0.47667371  0.28077454  0.90583005     0.26100
H182        H  0.61502687  0.22613843  0.81457365     0.32100
H183        H  0.68160330  0.29078440  0.81763924     0.38000
H184        H  0.50917364  0.34713424  0.97822545     0.32400
H185        H  0.55310593  0.37676365  0.00450755     0.31300
H186        H  0.63496426  0.38477539  0.99013658     0.33000
H187        H  0.68431380  0.31337051  0.94088020     0.31900
H188        H  0.52587364  0.27034933  0.00178075     0.35900
H189        H  0.58538630  0.22975937  0.03217527     0.28700
H190        H  0.55104193  0.37487129  0.76028660     0.32900
H191        H  0.66229437  0.36142810  0.85121745     0.35800
H192        H  0.58096531  0.38999673  0.01850266     0.28400
H193        H  0.61707364  0.23473264  0.03468444     0.41200
H194        H  0.53420695  0.24022011  0.79024339     0.31300
H195        H  0.49082229  0.28472196  0.85988307     0.38900
H196        H  0.67263583  0.34324165  0.93284828     0.30800
H197        H  0.58846130  0.22027492  0.78727428     0.30800
H198        H  0.58307657  0.37650497  0.75895388     0.31100
Zr199      Zr  0.56781107  0.34386597  0.33430402     2.17500
O200        O  0.57107947  0.37790931  0.27303858    -0.51300
O201        O  0.52092047  0.36169711  0.33227437    -0.74500
O202        O  0.56497446  0.32499785  0.26097875    -0.81300
O203        O  0.60046750  0.39507231  0.41189303    -0.83000
O204        O  0.56826582  0.27823505  0.26534918    -0.78600
O205        O  0.58600707  0.38943614  0.34119648    -0.90300
O206        O  0.49909335  0.34357913  0.39236330    -0.76200
O207        O  0.54103254  0.30414421  0.35160203    -0.85700
O208        O  0.55510604  0.34958463  0.40923124    -0.85400
O209        O  0.59863483  0.30581785  0.32589737    -0.72200
O210        O  0.60918908  0.34700624  0.37739672    -0.84300
Zr211      Zr  0.59958751  0.27220539  0.46029437     2.26400
Zr212      Zr  0.57135254  0.26562255  0.34440303     2.06300
Zr213      Zr  0.59616997  0.35069189  0.45294700     2.10000
Zr214      Zr  0.52860435  0.30968574  0.42674016     1.78800
O215        O  0.64047882  0.36518236  0.48094480    -0.93100
O216        O  0.49032883  0.28408322  0.39625724    -0.40900
O217        O  0.56954683  0.31047617  0.46976901    -0.77500
O218        O  0.55715155  0.27031915  0.41961744    -0.96200
O219        O  0.61309574  0.26816593  0.38582965    -0.89500
O220        O  0.62655418  0.31233325  0.44511007    -0.92400
C221        C  0.50030096  0.35963920  0.35816736     1.01400
C222        C  0.59625357  0.40385992  0.37170129     1.14300
C223        C  0.56673636  0.30141914  0.24332493     1.05100
O224        O  0.52771461  0.24662189  0.32111068    -0.94500
O225        O  0.56675627  0.22054899  0.38376220    -0.90300
O226        O  0.58277667  0.22575553  0.45367674    -0.83400
C227        C  0.57172336  0.21155444  0.42360391     1.11700
O228        O  0.65858079  0.34254733  0.31708434    -0.96500
Zr229      Zr  0.63918790  0.30884903  0.36969541     1.88900
O230        O  0.64442429  0.25094678  0.45224179    -0.73100
O231        O  0.59809682  0.23205213  0.30532908    -0.52400
O232        O  0.65950411  0.28929307  0.30469959    -0.97100
O233        O  0.67688783  0.33234995  0.40575143    -0.54300
O234        O  0.66784327  0.27123032  0.39579741    -0.73700
C235        C  0.66512757  0.25260003  0.42646450     0.98700
O236        O  0.60338976  0.24461540  0.52917220    -0.62500
O237        O  0.57498031  0.38770435  0.49285278    -0.57300
O238        O  0.59807186  0.28931725  0.53464497    -0.94000
O239        O  0.59101722  0.33565775  0.53106958    -0.92400
O240        O  0.51231239  0.33673184  0.48746159    -0.92700
O241        O  0.50464433  0.28398332  0.48516965    -0.91500
C242        C  0.59291763  0.31229307  0.55259464     1.17500
H243        H  0.54515150  0.36653129  0.41267642     0.33500
H244        H  0.54550162  0.25542454  0.42978162     0.44300
H245        H  0.64210687  0.31285878  0.46485015     0.37800
H246        H  0.60583489  0.30538123  0.29636348     0.34300
H247        H  0.47391121  0.29251853  0.40895600     0.26100
H248        H  0.60962870  0.22277467  0.32832420     0.32100
H249        H  0.67936273  0.29244997  0.30814950     0.38000
H250        H  0.51545869  0.35621487  0.47792202     0.32400
H251        H  0.55951595  0.37889334  0.50882704     0.31300
H252        H  0.63638600  0.37467308  0.50853748     0.33000
H253        H  0.67317486  0.35229265  0.40078975     0.31900
H254        H  0.50737611  0.26428762  0.47892192     0.35900
H255        H  0.58526881  0.23601584  0.53424160     0.28700
H256        H  0.55372452  0.37667611  0.25627207     0.32900
H257        H  0.64561670  0.34297247  0.29184074     0.35800
H258        H  0.58825637  0.39230957  0.51629552     0.28400
H259        H  0.61552379  0.22902075  0.52259465     0.41200
H260        H  0.53039379  0.24147538  0.29008755     0.31300
H261        H  0.48956054  0.28973126  0.36452456     0.38900
H262        H  0.69300233  0.32872536  0.38732810     0.30800
H263        H  0.58477732  0.21778735  0.29664231     0.30800
H264        H  0.58528668  0.37130479  0.25289358     0.31100
Zr265      Zr  0.46545504  0.99475147  0.86855776     2.17500
O266        O  0.42746316  0.00902610  0.82068767    -0.51300
O267        O  0.46346799  0.94679325  0.84982505    -0.74500
O268        O  0.47901157  0.99953551  0.79177567    -0.81300
O269        O  0.42076929  0.98640671  0.97096148    -0.83000
O270        O  0.52204781  0.01746265  0.78872621    -0.78600
O271        O  0.42032806  0.98218872  0.89623170    -0.90300
O272        O  0.49459617  0.92375348  0.89295680    -0.76200
O273        O  0.51180733  0.97989619  0.86857108    -0.85700
O274        O  0.47320358  0.97122885  0.93781227    -0.85400
O275        O  0.49220604  0.03625390  0.85956533    -0.72200
O276        O  0.45390858  0.02717204  0.92343595    -0.84300
Zr277      Zr  0.53744159  0.03072485  0.98567526     2.26400
Zr278      Zr  0.53912066  0.02088372  0.86299313     2.06300
Zr279      Zr  0.46459788  0.00431855  0.99256328     2.10000
Zr280      Zr  0.51920950  0.95659161  0.93768784     1.78800
O281        O  0.43202625  0.03503242  0.02599361    -0.93100
O282        O  0.55608158  0.93708499  0.89553426    -0.40900
O283        O  0.51093975  0.98920039  0.99368133    -0.77500
O284        O  0.54761002  0.99687235  0.93206202    -0.96200
O285        O  0.52806515  0.05345656  0.91647166    -0.89500
O286        O  0.49089774  0.04595900  0.98659386    -0.92400
C287        C  0.47542932  0.92468848  0.86375435     1.01400
C288        C  0.40922349  0.98014323  0.93458769     1.14300
C289        C  0.49993541  0.00900173  0.77097127     1.05100
O290        O  0.56884357  0.98691820  0.83091571    -0.94500
O291        O  0.58425343  0.03685535  0.88734264    -0.90300
O292        O  0.58374532  0.03694397  0.96244747    -0.83400
C293        C  0.59573317  0.03989906  0.92527110     1.11700
O294        O  0.46574747  0.08803707  0.84650472    -0.96500
Zr295      Zr  0.48159298  0.06726539  0.91667721     1.88900
O296        O  0.55210043  0.07884149  0.98788534    -0.73100
O297        O  0.55864551  0.05792139  0.81669937    -0.52400
O298        O  0.47364583  0.11702278  0.91229183    -0.97100
O299        O  0.43994411  0.07535981  0.95740916    -0.54300
O300        O  0.51897988  0.09382002  0.94269988    -0.73700
C301        C  0.54115346  0.09778291  0.96331747     0.98700
O302        O  0.56836484  0.01369214  0.04380053    -0.62500
O303        O  0.45159164  0.96785645  0.04558438    -0.57300
O304        O  0.52393454  0.03100009  0.06159566    -0.94000
O305        O  0.48365090  0.00762689  0.06518827    -0.92400
O306        O  0.50335604  0.92106107  0.99029486    -0.92700
O307        O  0.55347722  0.93540636  0.98646633    -0.91500
C308        C  0.50460272  0.01874026  0.08261388     1.17500
H309        H  0.46125965  0.95542794  0.94173394     0.33500
H310        H  0.56638119  0.99102949  0.93436163     0.44300
H311        H  0.48737500  0.05830861  0.01030395     0.37800
H312        H  0.48842820  0.04530197  0.83131781     0.34300
H313        H  0.55549074  0.91704671  0.90301185     0.26100
H314        H  0.56896403  0.04842232  0.79372499     0.32100
H315        H  0.47717583  0.12372212  0.94235408     0.38000
H316        H  0.49054154  0.93071286  0.00951571     0.32400
H317        H  0.43378192  0.97365498  0.05728340     0.31300
H318        H  0.43083690  0.02838639  0.05721635     0.33000
H319        H  0.42759954  0.08470855  0.93566049     0.31900
H320        H  0.55761870  0.94962120  0.00827878     0.35900
H321        H  0.57917687  0.99910554  0.03004868     0.28700
H322        H  0.42635680  0.99508926  0.79756741     0.32900
H323        H  0.44594659  0.08399617  0.84563423     0.35800
H324        H  0.44731744  0.95178252  0.02753065     0.28400
H325        H  0.58148792  0.02890844  0.04853144     0.41200
H326        H  0.58365964  0.98395332  0.85294419     0.31300
H327        H  0.54971176  0.93858508  0.86445870     0.38900
H328        H  0.44476270  0.08974591  0.97857731     0.30800
H329        H  0.54299694  0.06642160  0.80066153     0.30800
H330        H  0.43364488  0.02620878  0.80511189     0.31100
Zr331      Zr  0.46742802  0.99590258  0.36334013     2.17500
O332        O  0.43164512  0.00975697  0.31084332    -0.51300
O333        O  0.46670528  0.94824892  0.34451026    -0.74500
O334        O  0.48492428  0.00028884  0.28882905    -0.81300
O335        O  0.41951502  0.98436649  0.46018582    -0.83000
O336        O  0.52794866  0.01827186  0.29095297    -0.78600
O337        O  0.42139654  0.98270656  0.38518371    -0.90300
O338        O  0.49571626  0.92619107  0.39255742    -0.76200
O339        O  0.51421621  0.98286995  0.36872876    -0.85700
O340        O  0.47279213  0.97210022  0.43290712    -0.85400
O341        O  0.49299947  0.03800839  0.35764631    -0.72200
O342        O  0.45307685  0.02758919  0.41723970    -0.84300
Zr343      Zr  0.53270080  0.03532505  0.48760147     2.26400
Zr344      Zr  0.54010998  0.02492989  0.36639167     2.06300
Zr345      Zr  0.46117109  0.00458915  0.48701880     2.10000
Zr346      Zr  0.51919170  0.95960428  0.43840569     1.78800
O347        O  0.42680302  0.03609011  0.51325360    -0.93100
O348        O  0.55825422  0.94019173  0.40123158    -0.40900
O349        O  0.50827498  0.99223415  0.49331478    -0.77500
O350        O  0.54592353  0.00120840  0.43613480    -0.96200
O351        O  0.52637446  0.05803570  0.41775038    -0.89500
O352        O  0.48557313  0.04738490  0.48308043    -0.92400
C353        C  0.47782124  0.92645660  0.36119345     1.01400
C354        C  0.40928774  0.97898709  0.42242815     1.14300
C355        C  0.50688056  0.00944922  0.27072274     1.05100
O356        O  0.57525086  0.99562485  0.33663448    -0.94500
O357        O  0.58429015  0.04013529  0.39449042    -0.90300
O358        O  0.58034565  0.04194024  0.46910423    -0.83400
C359        C  0.59412605  0.04383393  0.43329606     1.11700
O360        O  0.43976467  0.08341001  0.36736284    -0.96500
Zr361      Zr  0.47907686  0.06911167  0.41219730     1.88900
O362        O  0.53648558  0.08567663  0.49262625    -0.73100
O363        O  0.55328208  0.06558755  0.32199947    -0.52400
O364        O  0.48593285  0.10304882  0.35209632    -0.97100
O365        O  0.44740884  0.09223204  0.46024002    -0.54300
O366        O  0.50732379  0.10428814  0.44148524    -0.73700
C367        C  0.52638472  0.10629611  0.47017981     0.98700
O368        O  0.56847562  0.02767512  0.54322605    -0.62500
O369        O  0.44612593  0.96836803  0.53923354    -0.57300
O370        O  0.51624607  0.03017334  0.56264980    -0.94000
O371        O  0.47600559  0.00674186  0.56237486    -0.92400
O372        O  0.50154957  0.92857679  0.49650460    -0.92700
O373        O  0.55208339  0.93549848  0.48628341    -0.91500
C374        C  0.49628722  0.01772473  0.58189133     1.17500
H375        H  0.46124396  0.95596361  0.43546119     0.33500
H376        H  0.56472069  0.99590950  0.44058721     0.44300
H377        H  0.48056420  0.05930573  0.50661149     0.37800
H378        H  0.48996945  0.04707774  0.32912008     0.34300
H379        H  0.55583501  0.91994447  0.40456226     0.26100
H380        H  0.55641187  0.08017192  0.34358564     0.32100
H381        H  0.50495956  0.10017382  0.34260066     0.38000
H382        H  0.48512402  0.91998792  0.48354599     0.32400
H383        H  0.42706327  0.97302967  0.54645910     0.31300
H384        H  0.41260079  0.02396083  0.52666822     0.33000
H385        H  0.43048506  0.08106912  0.45923731     0.31900
H386        H  0.56224261  0.95039763  0.50085456     0.35900
H387        H  0.56622817  0.04218125  0.56515796     0.28700
H388        H  0.43125406  0.99522842  0.28862360     0.32900
H389        H  0.42488942  0.07063444  0.37654498     0.35800
H390        H  0.44472929  0.95151054  0.52181744     0.28400
H391        H  0.56385887  0.01007263  0.55907531     0.41200
H392        H  0.58314231  0.00671715  0.31176405     0.31300
H393        H  0.55496581  0.94436048  0.36940425     0.38900
H394        H  0.44271582  0.10968030  0.44403935     0.30800
H395        H  0.57164520  0.06133561  0.31072877     0.30800
H396        H  0.43874441  0.02642164  0.29487443     0.31100
Zr397      Zr  0.43782674  0.67794170  0.77451820     2.17500
O398        O  0.44040422  0.64122159  0.72140825    -0.51300
O399        O  0.48391110  0.65653763  0.78522470    -0.74500
O400        O  0.43722766  0.69430022  0.69603959    -0.81300
O401        O  0.40330194  0.63329502  0.86481084    -0.83000
O402        O  0.43655385  0.74119995  0.69106647    -0.78600
O403        O  0.41314697  0.63521478  0.79139189    -0.90300
O404        O  0.50720177  0.67945883  0.83787302    -0.76200
O405        O  0.46567160  0.71795090  0.78123158    -0.85700
O406        O  0.45215253  0.67737288  0.84995655    -0.85400
O407        O  0.40726492  0.71634153  0.75922951    -0.72200
O408        O  0.39710499  0.67984066  0.81871623    -0.84300
Zr409      Zr  0.41299854  0.75866466  0.88549913     2.26400
Zr410      Zr  0.43580876  0.75636001  0.76599367     2.06300
Zr411      Zr  0.41220563  0.67921134  0.89388844     2.10000
Zr412      Zr  0.48001190  0.71750010  0.85682065     1.78800
O413        O  0.36944824  0.66434387  0.92762837    -0.93100
O414        O  0.51843945  0.73781610  0.81659659    -0.40900
O415        O  0.44061860  0.71900375  0.90175175    -0.77500
O416        O  0.45302594  0.75709434  0.84025884    -0.96200
O417        O  0.39622145  0.75942621  0.81168193    -0.89500
O418        O  0.38401965  0.71902778  0.88065340    -0.92400
C419        C  0.50467061  0.65988781  0.81123985     1.01400
C420        C  0.40402926  0.62266947  0.82634476     1.14300
C421        C  0.43623045  0.71747388  0.67374813     1.05100
O422        O  0.47870005  0.77156633  0.73316618    -0.94500
O423        O  0.44273564  0.80342542  0.78703835    -0.90300
O424        O  0.42896432  0.80421875  0.85862932    -0.83400
C425        C  0.43887671  0.81568197  0.82323002     1.11700
O426        O  0.33932562  0.69975142  0.74989582    -0.96500
Zr427      Zr  0.36838940  0.71938324  0.80629079     1.88900
O428        O  0.36634746  0.77498704  0.88987303    -0.73100
O429        O  0.40685579  0.78759279  0.72187389    -0.52400
O430        O  0.34962180  0.74870274  0.74674218    -0.97100
O431        O  0.33601171  0.68445381  0.83305597    -0.54300
O432        O  0.33872318  0.74962276  0.84688289    -0.73700
C433        C  0.34277296  0.76876863  0.87447635     0.98700
O434        O  0.41623295  0.79164770  0.94451290    -0.62500
O435        O  0.43915259  0.64603983  0.93773987    -0.57300
O436        O  0.41957938  0.74348674  0.96258062    -0.94000
O437        O  0.41589586  0.69667532  0.96821635    -0.92400
O438        O  0.49943902  0.69769886  0.92501739    -0.92700
O439        O  0.50375166  0.75024114  0.90285707    -0.91500
C440        C  0.41941382  0.72046255  0.98504142     1.17500
H441        H  0.46129869  0.66044829  0.85889162     0.33500
H442        H  0.46535846  0.77235629  0.84445283     0.44300
H443        H  0.36933793  0.71926845  0.90171598     0.37800
H444        H  0.39891221  0.71554299  0.73041236     0.34300
H445        H  0.51874349  0.72848454  0.78801730     0.26100
H446        H  0.41875620  0.79493529  0.69790899     0.32100
H447        H  0.35161803  0.76774458  0.75717527     0.38000
H448        H  0.48607142  0.70183428  0.94821997     0.32400
H449        H  0.45194718  0.65732331  0.95507769     0.31300
H450        H  0.37464109  0.64919539  0.94876700     0.33000
H451        H  0.33269581  0.68889079  0.86422482     0.31900
H452        H  0.48930473  0.76271694  0.91291252     0.35900
H453        H  0.43479883  0.79969404  0.94255134     0.28700
H454        H  0.45636919  0.64563769  0.70256213     0.32900
H455        H  0.35147760  0.68717351  0.73422540     0.35800
H456        H  0.42633297  0.63798861  0.95979493     0.28400
H457        H  0.40381746  0.80696295  0.93564425     0.41200
H458        H  0.47420982  0.78891854  0.71651591     0.31300
H459        H  0.51265194  0.75692664  0.80885010     0.38900
H460        H  0.34635084  0.66693014  0.83479182     0.30800
H461        H  0.39371107  0.77543802  0.70688352     0.30800
H462        H  0.42431955  0.64350991  0.70166005     0.31100
Zr463      Zr  0.44073743  0.68012088  0.27465360     2.17500
O464        O  0.44463175  0.64308812  0.22227347    -0.51300
O465        O  0.48685457  0.65981420  0.28545516    -0.74500
O466        O  0.44197785  0.69579014  0.19640600    -0.81300
O467        O  0.40565977  0.63562413  0.36335121    -0.83000
O468        O  0.44358535  0.74260401  0.19066581    -0.78600
O469        O  0.41691983  0.63689153  0.29065325    -0.90300
O470        O  0.51027972  0.68404813  0.33631774    -0.76200
O471        O  0.46859075  0.71997919  0.28279379    -0.85700
O472        O  0.45358339  0.67954068  0.35080597    -0.85400
O473        O  0.41078246  0.71855538  0.25615358    -0.72200
O474        O  0.39888752  0.68190632  0.31624255    -0.84300
Zr475      Zr  0.41328325  0.76049527  0.38331329     2.26400
Zr476      Zr  0.43913979  0.75840962  0.26496737     2.06300
Zr477      Zr  0.41232637  0.68169776  0.39206502     2.10000
Zr478      Zr  0.48116070  0.71967462  0.35916147     1.78800
O479        O  0.36749347  0.66836974  0.41972677    -0.93100
O480        O  0.51843870  0.74462893  0.32261725    -0.40900
O481        O  0.44085509  0.72121911  0.40221872    -0.77500
O482        O  0.45433940  0.75886818  0.34041069    -0.96200
O483        O  0.39857363  0.76127375  0.30817662    -0.89500
O484        O  0.38424145  0.72117731  0.37595123    -0.92400
C485        C  0.50800825  0.66439932  0.30978139     1.01400
C486        C  0.40736113  0.62455592  0.32542619     1.14300
C487        C  0.44237606  0.71878435  0.17376291     1.05100
O488        O  0.48088211  0.77710983  0.23251499    -0.94500
O489        O  0.44490324  0.80522499  0.28795442    -0.90300
O490        O  0.43016339  0.80585590  0.35914826    -0.83400
C491        C  0.44058254  0.81726632  0.32421971     1.11700
O492        O  0.34804887  0.69360593  0.24555548    -0.96500
Zr493      Zr  0.37068918  0.72151158  0.30027394     1.88900
O494        O  0.36664939  0.77720436  0.38338611    -0.73100
O495        O  0.40979062  0.78816226  0.21858078    -0.52400
O496        O  0.35357654  0.74835192  0.23657003    -0.97100
O497        O  0.33227116  0.69354182  0.32642799    -0.54300
O498        O  0.34104350  0.75556989  0.33235645    -0.73700
C499        C  0.34417894  0.77331379  0.36250172     0.98700
O500        O  0.41651208  0.79826454  0.43443931    -0.62500
O501        O  0.43453663  0.64946348  0.44419207    -0.57300
O502        O  0.41680670  0.74489707  0.46138322    -0.94000
O503        O  0.41362156  0.69812166  0.46669669    -0.92400
O504        O  0.50081689  0.69696655  0.42485950    -0.92700
O505        O  0.50257289  0.75006679  0.41179664    -0.91500
C506        C  0.41622578  0.72183669  0.48386996     1.17500
H507        H  0.46305167  0.66285706  0.35963836     0.33500
H508        H  0.46661240  0.77404377  0.34548942     0.44300
H509        H  0.36886462  0.72176297  0.39573910     0.37800
H510        H  0.40325959  0.71782845  0.22677983     0.34300
H511        H  0.53437254  0.74195108  0.34255939     0.26100
H512        H  0.40493382  0.77730365  0.19255114     0.32100
H513        H  0.33347882  0.74674949  0.23848932     0.38000
H514        H  0.48602199  0.68492831  0.43664303     0.32400
H515        H  0.42104706  0.63447712  0.44937514     0.31300
H516        H  0.35917915  0.65760812  0.39586690     0.33000
H517        H  0.31591822  0.70333840  0.31470670     0.31900
H518        H  0.48970116  0.76559469  0.41441258     0.35900
H519        H  0.40166680  0.79521647  0.45608198     0.28700
H520        H  0.46103653  0.64736506  0.20436735     0.32900
H521        H  0.35777300  0.67576707  0.24775626     0.35800
H522        H  0.44938164  0.64094166  0.42747653     0.28400
H523        H  0.43362410  0.79519920  0.45143367     0.41200
H524        H  0.49521269  0.76357868  0.24100574     0.31300
H525        H  0.52283022  0.73371504  0.29656640     0.38900
H526        H  0.33165216  0.69617171  0.35865962     0.30800
H527        H  0.39248645  0.78964967  0.23493683     0.30800
H528        H  0.42902464  0.64521071  0.20149700     0.31100
Zr529      Zr  0.16390976  0.93592632  0.01736121     2.17500
O530        O  0.12593365  0.93635054  0.06923820    -0.51300
O531        O  0.14336580  0.98195323  0.01308627    -0.74500
O532        O  0.17834965  0.93814176  0.09372261    -0.81300
O533        O  0.11885976  0.89955367  0.93438094    -0.83000
O534        O  0.22451711  0.94086665  0.09812726    -0.78600
O535        O  0.12252859  0.91009457  0.00669661    -0.90300
O536        O  0.16837635  0.00916400  0.96622685    -0.76200
O537        O  0.20212196  0.96575661  0.00695898    -0.85700
O538        O  0.16109457  0.95083689  0.94175125    -0.85400
O539        O  0.20288977  0.90699887  0.03425731    -0.72200
O540        O  0.16588922  0.89446022  0.97607912    -0.84300
Zr541      Zr  0.24189616  0.91311767  0.90493061     2.26400
Zr542      Zr  0.24127326  0.93722491  0.02282085     2.06300
Zr543      Zr  0.16348772  0.90964512  0.90043370     2.10000
Zr544      Zr  0.19988760  0.98002000  0.93079393     1.78800
O545        O  0.15162699  0.86482302  0.87149394    -0.93100
O546        O  0.22888859  0.01768063  0.95485598    -0.40900
O547        O  0.20175819  0.93974507  0.88838080    -0.77500
O548        O  0.23983011  0.95413237  0.94728329    -0.96200
O549        O  0.24456198  0.89677193  0.97970924    -0.89500
O550        O  0.20384158  0.88266572  0.91441694    -0.92400
C551        C  0.14881532  0.00505291  0.99309458     1.01400
C552        C  0.10948233  0.90030976  0.97404154     1.14300
C553        C  0.20071665  0.93941480  0.11560107     1.05100
O554        O  0.26012014  0.97881674  0.05419766    -0.94500
O555        O  0.28734250  0.94450234  0.99476949    -0.90300
O556        O  0.28633583  0.93261695  0.92272263    -0.83400
C557        C  0.29838326  0.94212948  0.95672264     1.11700
O558        O  0.17763942  0.84242673  0.04375367    -0.96500
Zr559      Zr  0.20597638  0.86725835  0.98969676     1.88900
O560        O  0.25975808  0.86646362  0.90310088    -0.73100
O561        O  0.27090186  0.90683528  0.06723121    -0.52400
O562        O  0.23130578  0.84793929  0.05286536    -0.97100
O563        O  0.18354784  0.82919066  0.95293971    -0.54300
O564        O  0.24194816  0.83997429  0.95907020    -0.73700
C565        C  0.25811102  0.84397395  0.92645798     0.98700
O566        O  0.27402490  0.91490502  0.84351245    -0.62500
O567        O  0.12649569  0.93141038  0.85797506    -0.57300
O568        O  0.22681988  0.91766926  0.82908172    -0.94000
O569        O  0.18059696  0.91426435  0.82475048    -0.92400
O570        O  0.17155885  0.00198288  0.87334579    -0.92700
O571        O  0.22523508  0.99986267  0.86844044    -0.91500
C572        C  0.20436759  0.91718206  0.80729675     1.17500
H573        H  0.14427338  0.96044393  0.93511907     0.33500
H574        H  0.25421044  0.96718924  0.94075316     0.44300
H575        H  0.20493642  0.86750347  0.89461238     0.37800
H576        H  0.20248499  0.89920195  0.06406361     0.34300
H577        H  0.21719846  0.03429278  0.95269735     0.26100
H578        H  0.28442388  0.91929132  0.08068858     0.32100
H579        H  0.24982039  0.85590425  0.04977513     0.38000
H580        H  0.17178996  0.02188541  0.87974973     0.32400
H581        H  0.13212582  0.95094795  0.85376132     0.31300
H582        H  0.16341478  0.86279580  0.84540225     0.33000
H583        H  0.16428463  0.82957695  0.96247018     0.31900
H584        H  0.23625003  0.98439036  0.85776002     0.35900
H585        H  0.28014415  0.93436083  0.84005923     0.28700
H586        H  0.12811081  0.95336701  0.08613296     0.32900
H587        H  0.18423136  0.82312614  0.04478210     0.35800
H588        H  0.12750911  0.92368692  0.82818750     0.28400
H589        H  0.29035711  0.90448729  0.85377424     0.41200
H590        H  0.27128990  0.97207522  0.07970527     0.31300
H591        H  0.23150935  0.01407345  0.98699048     0.38900
H592        H  0.19118808  0.81217429  0.96713690     0.30800
H593        H  0.25953774  0.90008982  0.09227818     0.30800
H594        H  0.12913652  0.92100927  0.09108210     0.31100
Zr595      Zr  0.16863530  0.93555543  0.52541267     2.17500
O596        O  0.13683561  0.92594085  0.58592817    -0.51300
O597        O  0.14821559  0.98139478  0.53069059    -0.74500
O598        O  0.18840453  0.93570999  0.59899017    -0.81300
O599        O  0.11705416  0.90826145  0.44247170    -0.83000
O600        O  0.23459379  0.93434179  0.59679712    -0.78600
O601        O  0.12368215  0.91668464  0.51509079    -0.90300
O602        O  0.16832012  0.00994567  0.47939283    -0.76200
O603        O  0.20693184  0.96505471  0.51329961    -0.85700
O604        O  0.16210550  0.95499203  0.45300457    -0.85400
O605        O  0.20730979  0.90494637  0.53162673    -0.72200
O606        O  0.16651820  0.89728840  0.47700793    -0.84300
Zr607      Zr  0.23887829  0.91747180  0.39779783     2.26400
Zr608      Zr  0.24577572  0.93495166  0.51849216     2.06300
Zr609      Zr  0.16063018  0.91722761  0.40441191     2.10000
Zr610      Zr  0.20079186  0.98377272  0.43999005     1.78800
O611        O  0.14121324  0.87564777  0.37387529    -0.93100
O612        O  0.22662694  0.02185788  0.47057189    -0.40900
O613        O  0.19947886  0.94648720  0.39064798    -0.77500
O614        O  0.24042471  0.95582831  0.44612737    -0.96200
O615        O  0.24465224  0.89716191  0.46967539    -0.89500
O616        O  0.20021064  0.88797601  0.40799769    -0.92400
C617        C  0.15106134  0.00476414  0.50992524     1.01400
C618        C  0.10896045  0.90863746  0.48293015     1.14300
C619        C  0.21188820  0.93456174  0.61767527     1.05100
O620        O  0.26545706  0.97616940  0.54986667    -0.94500
O621        O  0.29023842  0.94120964  0.48393679    -0.90300
O622        O  0.28481375  0.93395830  0.41048656    -0.83400
C623        C  0.29907624  0.94060554  0.44410842     1.11700
O624        O  0.17604644  0.84261840  0.53144495    -0.96500
Zr625      Zr  0.20588683  0.86818199  0.48056287     1.88900
O626        O  0.25729955  0.87124851  0.38945001    -0.73100
O627        O  0.27941084  0.90399644  0.55259156    -0.52400
O628        O  0.22963049  0.84300677  0.54017445    -0.97100
O629        O  0.18207974  0.83226518  0.44060057    -0.54300
O630        O  0.24275679  0.84352726  0.44626411    -0.73700
C631        C  0.25781443  0.84847802  0.41242613     0.98700
O632        O  0.27211407  0.92600016  0.33906934    -0.62500
O633        O  0.12770472  0.94703142  0.36559945    -0.57300
O634        O  0.21918335  0.92371286  0.32459134    -0.94000
O635        O  0.17289284  0.92174321  0.32654622    -0.92400
O636        O  0.17067997  0.00493937  0.38424125    -0.92700
O637        O  0.22763956  0.00859228  0.38390400    -0.91500
C638        C  0.19565841  0.92453598  0.30598595     1.17500
H639        H  0.14524499  0.96510765  0.45040948     0.33500
H640        H  0.25510228  0.96855435  0.43922346     0.44300
H641        H  0.19951011  0.87430034  0.38551909     0.37800
H642        H  0.20831975  0.89588446  0.56047629     0.34300
H643        H  0.22279853  0.02084303  0.50265310     0.26100
H644        H  0.28292222  0.91125713  0.58226136     0.32100
H645        H  0.22820618  0.82335681  0.53246497     0.38000
H646        H  0.17108382  0.99230540  0.35923981     0.32400
H647        H  0.11437564  0.93420081  0.35256018     0.31300
H648        H  0.12428597  0.88194028  0.35866611     0.33000
H649        H  0.18412654  0.81528513  0.45944275     0.31900
H650        H  0.22012179  0.02753452  0.38206846     0.35900
H651        H  0.26850703  0.91218436  0.31637307     0.28700
H652        H  0.13713737  0.94239551  0.60443576     0.32900
H653        H  0.15750737  0.84521021  0.51883536     0.35800
H654        H  0.11743764  0.95614497  0.38897115     0.28400
H655        H  0.26734982  0.94406649  0.32487021     0.41200
H656        H  0.28237897  0.96965167  0.56485383     0.31300
H657        H  0.24598982  0.01635246  0.46843291     0.38900
H658        H  0.19347558  0.82879851  0.41452705     0.30800
H659        H  0.26946534  0.88641358  0.55801122     0.30800
H660        H  0.14485014  0.91085639  0.60466712     0.31100
Zr661      Zr  0.93793168  0.83590112  0.03899601     2.17500
O662        O  0.94205843  0.87003948  0.09624831    -0.51300
O663        O  0.98425923  0.85533240  0.02958543    -0.74500
O664        O  0.94222115  0.81588618  0.11443437    -0.81300
O665        O  0.89716556  0.88646170  0.96395706    -0.83000
O666        O  0.93959774  0.76905846  0.11399188    -0.78600
O667        O  0.91434683  0.88001227  0.03361176    -0.90300
O668        O  0.00527157  0.83300543  0.97468853    -0.76200
O669        O  0.96425808  0.79640616  0.02125848    -0.85700
O670        O  0.94740439  0.84220064  0.96197310    -0.85400
O671        O  0.90819963  0.79672682  0.05385625    -0.72200
O672        O  0.89465135  0.83810818  0.00083857    -0.84300
Zr673      Zr  0.90225359  0.76574137  0.92049714     2.26400
Zr674      Zr  0.93475632  0.75719756  0.03569526     2.06300
Zr675      Zr  0.90438377  0.84410937  0.92387399     2.10000
Zr676      Zr  0.97296770  0.80233035  0.94395783     1.78800
O677        O  0.85937067  0.85764131  0.89641367    -0.93100
O678        O  0.00996886  0.77061289  0.96287284    -0.40900
O679        O  0.93062709  0.80493644  0.90590759    -0.77500
O680        O  0.94571275  0.76262317  0.95862967    -0.96200
O681        O  0.89205830  0.75925288  0.99687887    -0.89500
O682        O  0.87527814  0.80466940  0.93723051    -0.92400
C683        C  0.00462182  0.85109656  0.00409358     1.01400
C684        C  0.90171618  0.89431393  0.00353256     1.14300
C685        C  0.94119743  0.79200297  0.13435390     1.05100
O686        O  0.97783259  0.73776449  0.06230235    -0.94500
O687        O  0.93636536  0.71275817  0.99862952    -0.90300
O688        O  0.91792814  0.71910569  0.92980906    -0.83400
C689        C  0.92989411  0.70440022  0.95982144     1.11700
O690        O  0.85074735  0.82479511  0.07664378    -0.96500
Zr691      Zr  0.86611582  0.79858113  0.01435871     1.88900
O692        O  0.85512083  0.75005618  0.92345966    -0.73100
O693        O  0.90863645  0.72133047  0.07457718    -0.52400
O694        O  0.84831231  0.77218492  0.07785983    -0.97100
O695        O  0.82609448  0.82428781  0.98874687    -0.54300
O696        O  0.83700360  0.76230935  0.98847101    -0.73700
C697        C  0.83645872  0.74885834  0.95293212     0.98700
O698        O  0.89786063  0.73242986  0.86201856    -0.62500
O699        O  0.92595775  0.88139331  0.88059474    -0.57300
O700        O  0.90634142  0.78595273  0.84559945    -0.94000
O701        O  0.90786554  0.83274680  0.84579607    -0.92400
O702        O  0.99561436  0.82996984  0.88634505    -0.92700
O703        O  0.98459884  0.78079869  0.87501161    -0.91500
C704        C  0.90850180  0.80974161  0.82576885     1.17500
H705        H  0.95734774  0.85908442  0.95566101     0.33500
H706        H  0.95700379  0.74792097  0.94862720     0.44300
H707        H  0.85893607  0.80542343  0.91924455     0.37800
H708        H  0.90166822  0.79579357  0.08378192     0.34300
H709        H  0.02491530  0.77622848  0.94262279     0.26100
H710        H  0.91730565  0.71920848  0.10411053     0.32100
H711        H  0.82822944  0.77262324  0.07414202     0.38000
H712        H  0.99033488  0.84925365  0.89172803     0.32400
H713        H  0.91075870  0.89059850  0.86427496     0.31300
H714        H  0.85260272  0.87088744  0.91792975     0.33000
H715        H  0.81187282  0.81944184  0.01076249     0.31900
H716        H  0.97994846  0.76102618  0.87965810     0.35900
H717        H  0.88164524  0.73812925  0.84437100     0.28700
H718        H  0.95960178  0.86620953  0.11160066     0.32900
H719        H  0.86635626  0.83693674  0.08371636     0.35800
H720        H  0.93216152  0.89501804  0.90214433     0.28400
H721        H  0.91360686  0.73541444  0.84207515     0.41200
H722        H  0.99153296  0.75248538  0.05663445     0.31300
H723        H  0.01642067  0.77616174  0.99233604     0.38900
H724        H  0.81991069  0.81519162  0.96165063     0.30800
H725        H  0.89067897  0.72984482  0.07971904     0.30800
H726        H  0.92780145  0.86545331  0.11836496     0.31100
Zr727      Zr  0.93819529  0.83870702  0.53827148     2.17500
O728        O  0.93578488  0.87546763  0.59146360    -0.51300
O729        O  0.98440930  0.85919565  0.53579021    -0.74500
O730        O  0.93721924  0.82327942  0.61620696    -0.81300
O731        O  0.90667388  0.88570049  0.44754725    -0.83000
O732        O  0.93355582  0.77658001  0.62180295    -0.78600
O733        O  0.91726446  0.88249906  0.52075252    -0.90300
O734        O  0.00900936  0.83659256  0.48518374    -0.76200
O735        O  0.96552179  0.79854263  0.53330057    -0.85700
O736        O  0.95403539  0.84056232  0.46385642    -0.85400
O737        O  0.90680627  0.80077582  0.55193689    -0.72200
O738        O  0.89863847  0.83895653  0.49041366    -0.84300
Zr739      Zr  0.91306267  0.76137137  0.42406567     2.26400
Zr740      Zr  0.93467865  0.76037878  0.54590947     2.06300
Zr741      Zr  0.91479164  0.84013144  0.41626190     2.10000
Zr742      Zr  0.98115486  0.80004769  0.45898363     1.78800
O743        O  0.87189103  0.85403704  0.38119266    -0.93100
O744        O  0.01610519  0.77736623  0.50471927    -0.40900
O745        O  0.94259693  0.80002044  0.41057359    -0.77500
O746        O  0.95258533  0.76092397  0.47205390    -0.96200
O747        O  0.89579726  0.76004974  0.49740489    -0.89500
O748        O  0.88499237  0.80128228  0.42827982    -0.92400
C749        C  0.00600895  0.85561961  0.51274191     1.01400
C750        C  0.90808868  0.89567030  0.48653061     1.14300
C751        C  0.93425745  0.80057363  0.63885341     1.05100
O752        O  0.97653944  0.74390558  0.58149312    -0.94500
O753        O  0.93881281  0.71338402  0.51962399    -0.90300
O754        O  0.92692306  0.71501532  0.44688697    -0.83400
C755        C  0.93554646  0.70219416  0.48195125     1.11700
O756        O  0.84809694  0.83423654  0.54945623    -0.96500
Zr757      Zr  0.86877692  0.80045229  0.50233835     1.88900
O758        O  0.86630950  0.74422224  0.41980691    -0.73100
O759        O  0.90649809  0.72686272  0.58653338    -0.52400
O760        O  0.84584969  0.77738488  0.56458099    -0.97100
O761        O  0.83143680  0.82465205  0.46428240    -0.54300
O762        O  0.84166257  0.76344395  0.47391800    -0.73700
C763        C  0.84467576  0.74642337  0.44302452     0.98700
O764        O  0.91735682  0.73031743  0.36263523    -0.62500
O765        O  0.93945517  0.87308898  0.36901477    -0.57300
O766        O  0.92025329  0.77662553  0.34731138    -0.94000
O767        O  0.92026907  0.82346601  0.34125977    -0.92400
O768        O  0.00429937  0.82101198  0.39533893    -0.92700
O769        O  0.00473724  0.76789252  0.41249204    -0.91500
C770        C  0.92210809  0.79945008  0.32455744     1.17500
H771        H  0.96412567  0.85726931  0.45696879     0.33500
H772        H  0.96437090  0.74541712  0.46750238     0.44300
H773        H  0.87036820  0.80096710  0.40669119     0.37800
H774        H  0.89804640  0.80171063  0.58023439     0.34300
H775        H  0.03349345  0.78161370  0.48947261     0.26100
H776        H  0.91208390  0.72797140  0.61790143     0.32100
H777        H  0.82648666  0.77597368  0.55536327     0.38000
H778        H  0.99430322  0.83844354  0.38908480     0.32400
H779        H  0.92513040  0.88453431  0.35432571     0.31300
H780        H  0.87505357  0.87323144  0.37012490     0.33000
H781        H  0.82660482  0.81328951  0.43880410     0.31900
H782        H  0.99012049  0.75969484  0.39433672     0.35900
H783        H  0.93587775  0.72227634  0.36509067     0.28700
H784        H  0.95218832  0.87351643  0.61056889     0.32900
H785        H  0.82855645  0.82918052  0.55149641     0.35800
H786        H  0.94855285  0.88557751  0.38963090     0.28400
H787        H  0.90472062  0.71473692  0.36906108     0.41200
H788        H  0.98700763  0.76074636  0.58837193     0.31300
H789        H  0.01319508  0.75736597  0.50087769     0.38900
H790        H  0.83991131  0.84151862  0.45102258     0.30800
H791        H  0.88789137  0.73468456  0.58494736     0.30800
H792        H  0.92013013  0.87112682  0.61103656     0.31100
Zr793      Zr  0.66440714  0.57399637  0.80957267     2.17500
O794        O  0.62878789  0.57298101  0.75266374    -0.51300
O795        O  0.64286265  0.52825613  0.81510411    -0.74500
O796        O  0.68107321  0.57365588  0.73371955    -0.81300
O797        O  0.61738218  0.60938077  0.88925087    -0.83000
O798        O  0.72741619  0.57288367  0.73263317    -0.78600
O799        O  0.62172059  0.59758767  0.81780256    -0.90300
O800        O  0.66225088  0.50405100  0.87256613    -0.76200
O801        O  0.70274314  0.54472490  0.82214306    -0.85700
O802        O  0.66068403  0.55909849  0.88516394    -0.85400
O803        O  0.70346178  0.60351647  0.79699776    -0.72200
O804        O  0.66506735  0.61529355  0.85171403    -0.84300
Zr805      Zr  0.74038798  0.59752551  0.92838222     2.26400
Zr806      Zr  0.74209109  0.57378025  0.80992126     2.06300
Zr807      Zr  0.66167168  0.59990887  0.92707915     2.10000
Zr808      Zr  0.69967534  0.53034441  0.89817497     1.78800
O809        O  0.64771604  0.64414105  0.95511174    -0.93100
O810        O  0.72166636  0.49207358  0.86231458    -0.40900
O811        O  0.70025218  0.57042314  0.94099225    -0.77500
O812        O  0.74000739  0.55682270  0.88537589    -0.96200
O813        O  0.74409034  0.61412357  0.85386974    -0.89500
O814        O  0.70206472  0.62735643  0.91691717    -0.92400
C815        C  0.64461608  0.50717805  0.84181337     1.01400
C816        C  0.60815361  0.60775190  0.84922185     1.14300
C817        C  0.70395704  0.57397292  0.71336652     1.05100
O818        O  0.75650429  0.52897777  0.78495953    -0.94500
O819        O  0.78854668  0.56955145  0.84057453    -0.90300
O820        O  0.78620394  0.58179946  0.91210738    -0.83400
C821        C  0.79934750  0.57294023  0.87900646     1.11700
O822        O  0.68043122  0.66777421  0.78336078    -0.96500
Zr823      Zr  0.70532509  0.64294958  0.84197021     1.88900
O824        O  0.75822205  0.64408784  0.93208219    -0.73100
O825        O  0.77254299  0.59937370  0.76008547    -0.52400
O826        O  0.73696797  0.66040892  0.78583616    -0.97100
O827        O  0.67890243  0.68220947  0.86591232    -0.54300
O828        O  0.73597306  0.67186496  0.88269668    -0.73700
C829        C  0.75385319  0.66771542  0.91313545     0.98700
O830        O  0.76933331  0.59129517  0.99396275    -0.62500
O831        O  0.62674746  0.57570594  0.97039747    -0.57300
O832        O  0.72405487  0.59257165  0.00341955    -0.94000
O833        O  0.67782213  0.59675356  0.00388382    -0.92400
O834        O  0.67895743  0.51152220  0.96564468    -0.92700
O835        O  0.72713724  0.50337415  0.95128603    -0.91500
C836        C  0.70108456  0.59316786  0.02328365     1.17500
H837        H  0.64356115  0.54991735  0.89160392     0.33500
H838        H  0.75498664  0.54456527  0.89247746     0.44300
H839        H  0.70241008  0.64237400  0.93713126     0.37800
H840        H  0.70337499  0.61182112  0.76749993     0.34300
H841        H  0.71434258  0.47526051  0.87756979     0.26100
H842        H  0.78211336  0.61268010  0.77891301     0.32100
H843        H  0.73252096  0.65036750  0.75877102     0.38000
H844        H  0.65906344  0.51341389  0.96067343     0.32400
H845        H  0.63550470  0.55827176  0.98080768     0.31300
H846        H  0.62878939  0.64103051  0.96537066     0.33000
H847        H  0.68422613  0.68463248  0.89715108     0.31900
H848        H  0.74611592  0.50991748  0.94715358     0.35900
H849        H  0.77685479  0.57238142  0.99301190     0.28700
H850        H  0.63190519  0.55603178  0.73607092     0.32900
H851        H  0.66156046  0.66060230  0.78584103     0.35800
H852        H  0.62474273  0.58648135  0.99737943     0.28400
H853        H  0.78514908  0.60376777  0.98932410     0.41200
H854        H  0.77103106  0.53328880  0.76322236     0.31300
H855        H  0.71349764  0.49178209  0.83232636     0.38900
H856        H  0.65986218  0.67538804  0.86745096     0.30800
H857        H  0.78672389  0.58593894  0.75222557     0.30800
H858        H  0.63257175  0.58846873  0.73136981     0.31100
Zr859      Zr  0.66460050  0.57564746  0.30859271     2.17500
O860        O  0.62902436  0.57741386  0.25152404    -0.51300
O861        O  0.64298729  0.52963057  0.31293776    -0.74500
O862        O  0.68135983  0.57407362  0.23324291    -0.81300
O863        O  0.61891483  0.61284257  0.38876699    -0.83000
O864        O  0.72769329  0.57379722  0.23250862    -0.78600
O865        O  0.62283656  0.60055471  0.31728109    -0.90300
O866        O  0.66216342  0.50540031  0.37057828    -0.76200
O867        O  0.70229523  0.54591190  0.32192012    -0.85700
O868        O  0.66045148  0.56105752  0.38417922    -0.85400
O869        O  0.70393322  0.60490915  0.29600725    -0.72200
O870        O  0.66630312  0.61692816  0.35062518    -0.84300
Zr871      Zr  0.74094939  0.59843972  0.42823984     2.26400
Zr872      Zr  0.74178483  0.57442284  0.30966882     2.06300
Zr873      Zr  0.66260199  0.60195201  0.42618932     2.10000
Zr874      Zr  0.69889230  0.53178351  0.39790912     1.78800
O875        O  0.64959180  0.64655441  0.45392952    -0.93100
O876        O  0.71979814  0.49252293  0.36299324    -0.40900
O877        O  0.70056143  0.57176824  0.44115676    -0.77500
O878        O  0.73931526  0.55770291  0.38502290    -0.96200
O879        O  0.74457458  0.61465570  0.35345190    -0.89500
O880        O  0.70341090  0.62911558  0.41636492    -0.92400
C881        C  0.64476412  0.50839590  0.33947410     1.01400
C882        C  0.60988504  0.61137789  0.34874008     1.14300
C883        C  0.70429600  0.57443449  0.21318283     1.05100
O884        O  0.75317467  0.52898011  0.28387294    -0.94500
O885        O  0.78742582  0.56852199  0.34109681    -0.90300
O886        O  0.78537245  0.57899722  0.41357852    -0.83400
C887        C  0.79800232  0.57014715  0.37993422     1.11700
O888        O  0.68429720  0.67084525  0.28126745    -0.96500
Zr889      Zr  0.70662561  0.64440934  0.34104459     1.88900
O890        O  0.76059575  0.64463666  0.42880223    -0.73100
O891        O  0.77490882  0.59791004  0.26183891    -0.52400
O892        O  0.73672284  0.66291026  0.28353889    -0.97100
O893        O  0.67792849  0.68124545  0.36770422    -0.54300
O894        O  0.73998587  0.67260925  0.37773088    -0.73700
C895        C  0.75792975  0.66799708  0.40795896     0.98700
O896        O  0.77549350  0.59411368  0.48665494    -0.62500
O897        O  0.62676750  0.57816308  0.46806509    -0.57300
O898        O  0.72277591  0.59286246  0.50294664    -0.94000
O899        O  0.67678074  0.59841859  0.50356652    -0.92400
O900        O  0.67679453  0.51599593  0.46601049    -0.92700
O901        O  0.72641661  0.50297425  0.44838596    -0.91500
C902        C  0.69982562  0.59392610  0.52298626     1.17500
H903        H  0.64325347  0.55206405  0.39021692     0.33500
H904        H  0.75357946  0.54460612  0.39198254     0.44300
H905        H  0.70415471  0.64412503  0.43656971     0.37800
H906        H  0.70405037  0.61304255  0.26651466     0.34300
H907        H  0.71304664  0.49327865  0.33207150     0.26100
H908        H  0.78463783  0.61086012  0.28110373     0.32100
H909        H  0.74250309  0.64671457  0.26696357     0.38000
H910        H  0.65709077  0.51893517  0.46041290     0.32400
H911        H  0.63628204  0.56370206  0.48612998     0.31300
H912        H  0.63744276  0.64206357  0.47915763     0.33000
H913        H  0.68214783  0.68236014  0.39960578     0.31900
H914        H  0.74459685  0.51188154  0.44916180     0.35900
H915        H  0.77105972  0.60793738  0.50875421     0.28700
H916        H  0.63136199  0.56071917  0.23398499     0.32900
H917        H  0.69026437  0.69022168  0.28453832     0.35800
H918        H  0.62061788  0.59165390  0.48967611     0.28400
H919        H  0.77223211  0.57597381  0.50181694     0.41200
H920        H  0.76632377  0.53262530  0.25968240     0.31300
H921        H  0.71071000  0.47603847  0.37646457     0.38900
H922        H  0.65912297  0.67376752  0.36656847     0.30800
H923        H  0.78858573  0.58366681  0.25525994     0.30800
H924        H  0.63358369  0.59315453  0.23113348     0.31100
Zr925      Zr  0.07126892  0.16723588  0.02180097     2.17500
O926        O  0.07318417  0.12943696  0.07738660    -0.51300
O927        O  0.02483765  0.14738492  0.02091510    -0.74500
O928        O  0.07153965  0.18109816  0.09861771    -0.81300
O929        O  0.10336319  0.12260340  0.93483881    -0.83000
O930        O  0.07424277  0.22776933  0.10098503    -0.78600
O931        O  0.09184049  0.12373077  0.00735988    -0.90300
O932        O  0.00030441  0.16887509  0.96606771    -0.76200
O933        O  0.04311657  0.20677405  0.01299670    -0.85700
O934        O  0.05560214  0.16629788  0.94714877    -0.85400
O935        O  0.10250623  0.20507266  0.03389465    -0.72200
O936        O  0.11125944  0.16852495  0.97567140    -0.84300
Zr937      Zr  0.09552265  0.24779571  0.90385335     2.26400
Zr938      Zr  0.07364056  0.24472522  0.02459814     2.06300
Zr939      Zr  0.09500483  0.16871440  0.90113878     2.10000
Zr940      Zr  0.02789681  0.20624577  0.93783645     1.78800
O941        O  0.13746847  0.15487089  0.86720035    -0.93100
O942        O  0.98997754  0.22799876  0.97482246    -0.40900
O943        O  0.06671585  0.20868410  0.89068987    -0.77500
O944        O  0.05596455  0.24534565  0.95063558    -0.96200
O945        O  0.11271055  0.24738145  0.97756900    -0.89500
O946        O  0.12419341  0.20808441  0.91074859    -0.92400
C947        C  0.00322863  0.15048179  0.99686135     1.01400
C948        C  0.10130544  0.11155002  0.97406565     1.14300
C949        C  0.07385216  0.20357178  0.11948565     1.05100
O950        O  0.02928529  0.26024273  0.04929524    -0.94500
O951        O  0.07132323  0.29233585  0.99908283    -0.90300
O952        O  0.07792436  0.29254272  0.92468446    -0.83400
C953        C  0.07152411  0.30417122  0.96066689     1.11700
O954        O  0.16471817  0.17673554  0.03696883    -0.96500
Zr955      Zr  0.14062514  0.20744677  0.98475763     1.88900
O956        O  0.14212899  0.26602544  0.90079601    -0.73100
O957        O  0.09797183  0.27849391  0.06810123    -0.52400
O958        O  0.16755116  0.22886988  0.04217470    -0.97100
O959        O  0.17376572  0.18218444  0.94237302    -0.54300
O960        O  0.16740983  0.24586899  0.95565667    -0.73700
C961        C  0.16391936  0.26411192  0.92456110     0.98700
O962        O  0.09238271  0.28653912  0.85036930    -0.62500
O963        O  0.06907162  0.13487566  0.86028263    -0.57300
O964        O  0.08987210  0.23364175  0.82724001    -0.94000
O965        O  0.09086396  0.18683015  0.82522469    -0.92400
O966        O  0.00720785  0.18454963  0.87436850    -0.92700
O967        O  0.00486594  0.23882553  0.88736722    -0.91500
C968        C  0.08896385  0.21095887  0.80637051     1.17500
H969        H  0.04583764  0.14946176  0.94116734     0.33500
H970        H  0.04366586  0.26061633  0.94579080     0.44300
H971        H  0.13871472  0.20898255  0.88937027     0.37800
H972        H  0.11099667  0.20378555  0.06259324     0.34300
H973        H  0.97348112  0.21858246  0.96365544     0.26100
H974        H  0.08897939  0.27834046  0.09727789     0.32100
H975        H  0.15995368  0.24769149  0.04403460     0.38000
H976        H  0.02007202  0.18828806  0.84980220     0.32400
H977        H  0.05633539  0.14580310  0.84120484     0.31300
H978        H  0.13445081  0.13543393  0.85932706     0.33000
H979        H  0.16872538  0.16251326  0.94719243     0.45900
H980        H  0.01985379  0.24937130  0.87288917     0.35900
H981        H  0.10683442  0.28364636  0.82834454     0.28700
H982        H  0.05687025  0.13131282  0.09614468     0.32900
H983        H  0.15145077  0.17278369  0.06086916     0.35800
H984        H  0.08234117  0.12713413  0.83959451     0.28400
H985        H  0.07496000  0.28413620  0.83422055     0.41200
H986        H  0.02443369  0.24743618  0.07420625     0.31300
H987        H  0.99141432  0.22160402  0.00616647     0.38900
H988        H  0.19122359  0.18423723  0.95858265     0.30800
H989        H  0.11616595  0.27034074  0.07382673     0.30800
H990        H  0.08897820  0.13317019  0.09691561     0.31100
Zr991      Zr  0.07339880  0.16929681  0.52455066     2.17500
O992        O  0.07111225  0.13548693  0.58623090    -0.51300
O993        O  0.02658786  0.14988168  0.52073590    -0.74500
O994        O  0.07123820  0.18957819  0.59753216    -0.81300
O995        O  0.10405190  0.11709070  0.44985883    -0.83000
O996        O  0.07433691  0.23635240  0.59224644    -0.78600
O997        O  0.09483361  0.12482733  0.52183456    -0.90300
O998        O  0.00491541  0.16862433  0.46047622    -0.76200
O999        O  0.04671394  0.20876725  0.50551616    -0.85700
O1000       O  0.06073558  0.16326216  0.44933447    -0.85400
O1001       O  0.10469910  0.20748185  0.53251828    -0.72200
O1002       O  0.11528060  0.16675408  0.48315403    -0.84300
Zr1003     Zr  0.10390013  0.24038014  0.39575842     2.26400
Zr1004     Zr  0.07728528  0.24725501  0.51297794     2.06300
Zr1005     Zr  0.10192287  0.16125756  0.40806935     2.10000
Zr1006     Zr  0.03445445  0.20317570  0.42993518     1.78800
O1007       O  0.14583691  0.14251850  0.38731605    -0.93100
O1008       O  0.99765872  0.23023777  0.46005226    -0.40900
O1009       O  0.07508630  0.20077055  0.38795220    -0.77500
O1010       O  0.06234495  0.24260587  0.43777534    -0.96200
O1011       O  0.11813685  0.24568465  0.47006596    -0.89500
O1012       O  0.13146016  0.20084633  0.41295215    -0.92400
C1013       C  0.00615736  0.15187864  0.49372191     1.01400
C1014       C  0.10239527  0.10935585  0.49088637     1.14300
C1015       C  0.07300521  0.21341441  0.61477728     1.05100
O1016       O  0.03403645  0.26467511  0.53916004    -0.94500
O1017       O  0.07244146  0.29203637  0.47400313    -0.90300
O1018       O  0.08539797  0.28635622  0.40270335    -0.83400
C1019       C  0.07573913  0.30073011  0.43369430     1.11700
O1020       O  0.17118097  0.17256600  0.53201395    -0.96500
Zr1021     Zr  0.14491710  0.20612888  0.48793826     1.88900
O1022       O  0.14857973  0.26271739  0.40036183    -0.73100
O1023       O  0.10557371  0.28099916  0.54987502    -0.52400
O1024       O  0.16132760  0.22674163  0.55549381    -0.97100
O1025       O  0.18584872  0.18703698  0.45541470    -0.54300
O1026       O  0.17063601  0.24622747  0.46147280    -0.73700
C1027       C  0.16837562  0.26329721  0.42836012     0.98700
O1028       O  0.10772940  0.26748956  0.32651137    -0.62500
O1029       O  0.07877443  0.12666091  0.36471459    -0.57300
O1030       O  0.10007003  0.22019226  0.32318408    -0.94000
O1031       O  0.09920375  0.17324829  0.32937224    -0.92400
O1032       O  0.01060230  0.17920908  0.37187281    -0.92700
O1033       O  0.01742201  0.23175508  0.36803234    -0.91500
C1034       C  0.09825895  0.19613926  0.30671252     1.17500
H1035       H  0.05082802  0.14630021  0.44544675     0.33500
H1036       H  0.04995861  0.25704062  0.42809541     0.44300
H1037       H  0.14670737  0.19998445  0.39305201     0.37800
H1038       H  0.11194008  0.20812242  0.56212424     0.34300
H1039       H  0.99470112  0.22233363  0.49024011     0.26100
H1040       H  0.09428072  0.28747812  0.57440730     0.32100
H1041       H  0.18145838  0.22641909  0.55320618     0.38000
H1042       H  0.01652566  0.15977850  0.37586682     0.32400
H1043       H  0.09281141  0.11253313  0.35947350     0.31300
H1044       H  0.14370777  0.13829448  0.35571402     0.33000
H1045       H  0.19081923  0.19992265  0.43066495     0.31900
H1046       H  0.03386997  0.23675831  0.35067964     0.35900
H1047       H  0.08907877  0.27422758  0.31957116     0.28700
H1048       H  0.05433143  0.13972998  0.60265270     0.32900
H1049       H  0.16194369  0.17150423  0.56094534     0.35800
H1050       H  0.06576267  0.11742762  0.38524271     0.28400
H1051       H  0.11818768  0.28427295  0.33378483     0.41200
H1052       H  0.03890381  0.28169780  0.55461377     0.31300
H1053       H  0.98125084  0.22468997  0.44324109     0.38900
H1054       H  0.17967614  0.17005887  0.44102708     0.30800
H1055       H  0.12021683  0.26996242  0.56454219     0.30800
H1056       H  0.08635782  0.13976283  0.60651685     0.31100
Zr1057     Zr  0.34271632  0.44459343  0.81057155     2.17500
O1058       O  0.37905997  0.44277384  0.75594784    -0.51300
O1059       O  0.36101575  0.49206562  0.80991339    -0.74500
O1060       O  0.32653150  0.44574101  0.73433165    -0.81300
O1061       O  0.38835744  0.41029849  0.89852288    -0.83000
O1062       O  0.28015129  0.44567071  0.73249660    -0.78600
O1063       O  0.38669083  0.42342323  0.82583452    -0.90300
O1064       O  0.33181833  0.51861898  0.84746464    -0.76200
O1065       O  0.30316588  0.47240801  0.81836549    -0.85700
O1066       O  0.34511227  0.46033250  0.88403309    -0.85400
O1067       O  0.30468980  0.41356899  0.79957017    -0.72200
O1068       O  0.34243572  0.40361423  0.85787185    -0.84300
Zr1069     Zr  0.26651478  0.41740154  0.93004069     2.26400
Zr1070     Zr  0.26501741  0.44186595  0.80890879     2.06300
Zr1071     Zr  0.34437471  0.41976718  0.93135237     2.10000
Zr1072     Zr  0.30518664  0.48736313  0.89247742     1.78800
O1073       O  0.36073091  0.37831155  0.97070070    -0.93100
O1074       O  0.27293673  0.52325989  0.86923401    -0.40900
O1075       O  0.30478576  0.44744569  0.94083686    -0.77500
O1076       O  0.26632892  0.45858938  0.88265052    -0.96200
O1077       O  0.26411069  0.40129004  0.85678864    -0.89500
O1078       O  0.30597608  0.38934423  0.92266655    -0.92400
C1079       C  0.35296898  0.51539463  0.82404124     1.01400
C1080       C  0.39899945  0.41295239  0.85990539     1.14300
C1081       C  0.30356976  0.44547224  0.71380281     1.05100
O1082       O  0.24700098  0.48561318  0.77976629    -0.94500
O1083       O  0.21862155  0.44489045  0.83703971    -0.90300
O1084       O  0.22130597  0.43460196  0.91077901    -0.83400
C1085       C  0.20818134  0.44264646  0.87584568     1.11700
O1086       O  0.33373888  0.34721699  0.80308236    -0.96500
Zr1087     Zr  0.30376900  0.37389153  0.84887873     1.88900
O1088       O  0.24724484  0.37056623  0.93173088    -0.73100
O1089       O  0.23474947  0.41445658  0.76349438    -0.52400
O1090       O  0.28196371  0.35574612  0.78331732    -0.97100
O1091       O  0.32792736  0.33583205  0.88622717    -0.54300
O1092       O  0.26662267  0.34581427  0.87822111    -0.73700
C1093       C  0.24889566  0.34891760  0.90847612     0.98700
O1094       O  0.23614900  0.41658564  0.99365528    -0.62500
O1095       O  0.37937018  0.44715850  0.96701043    -0.57300
O1096       O  0.28307322  0.42273820  0.00571442    -0.94000
O1097       O  0.32941751  0.42492139  0.00689129    -0.92400
O1098       O  0.33786343  0.50859536  0.94201187    -0.92700
O1099       O  0.28251864  0.51018327  0.95245153    -0.91500
C1100       C  0.30609614  0.42544578  0.02580995     1.17500
H1101       H  0.36151581  0.47083081  0.88897765     0.33500
H1102       H  0.25129965  0.47077232  0.88806583     0.44300
H1103       H  0.30612750  0.37426921  0.94437143     0.37800
H1104       H  0.30497467  0.40575306  0.77072371     0.34300
H1105       H  0.28389258  0.54043566  0.86666507     0.26100
H1106       H  0.22886799  0.42715190  0.73894296     0.32100
H1107       H  0.26223671  0.35538267  0.79007046     0.38000
H1108       H  0.33755699  0.52852713  0.93366247     0.32400
H1109       H  0.37021495  0.46458897  0.97408560     0.31300
H1110       H  0.36846057  0.38493209  0.99874142     0.33000
H1111       H  0.31549982  0.32909279  0.90984346     0.31900
H1112       H  0.28752361  0.49918762  0.97945487     0.35900
H1113       H  0.22946303  0.43573546  0.99596047     0.28700
H1114       H  0.37768741  0.46015162  0.73790160     0.32900
H1115       H  0.34761556  0.36069268  0.79241434     0.35800
H1116       H  0.38273756  0.43768936  0.99602340     0.28400
H1117       H  0.21993295  0.40578466  0.98484556     0.41200
H1118       H  0.22853452  0.48116746  0.76857494     0.31300
H1119       H  0.26812309  0.51908053  0.83838450     0.38900
H1120       H  0.34312823  0.34469685  0.90216649     0.30800
H1121       H  0.24681679  0.40101201  0.74948735     0.30800
H1122       H  0.37405523  0.42796795  0.73562725     0.31100
Zr1123     Zr  0.34094974  0.44857813  0.31026078     2.17500
O1124       O  0.37693532  0.44686076  0.25502358    -0.51300
O1125       O  0.35831348  0.49640591  0.30729197    -0.74500
O1126       O  0.32428188  0.44818282  0.23399423    -0.81300
O1127       O  0.38788342  0.41554945  0.39876683    -0.83000
O1128       O  0.27803118  0.44457867  0.23278546    -0.78600
O1129       O  0.38500960  0.42693351  0.32542730    -0.90300
O1130       O  0.33606650  0.52112414  0.35816120    -0.76200
O1131       O  0.30106224  0.47591463  0.31889319    -0.85700
O1132       O  0.34357753  0.46450354  0.38382040    -0.85400
O1133       O  0.30316686  0.41707177  0.30031398    -0.72200
O1134       O  0.34187763  0.40805862  0.35841125    -0.84300
Zr1135     Zr  0.26588001  0.42061602  0.43028933     2.26400
Zr1136     Zr  0.26316520  0.44496090  0.30966394     2.06300
Zr1137     Zr  0.34359906  0.42413351  0.43187090     2.10000
Zr1138     Zr  0.30330117  0.49098461  0.39299372     1.78800
O1139       O  0.35949757  0.38225881  0.47067513    -0.93100
O1140       O  0.27625567  0.52845340  0.35963338    -0.40900
O1141       O  0.30353896  0.45113067  0.44114474    -0.77500
O1142       O  0.26466763  0.46181247  0.38328173    -0.96200
O1143       O  0.26383730  0.40440131  0.35721498    -0.89500
O1144       O  0.30570558  0.39313157  0.42329815    -0.92400
C1145       C  0.35400677  0.51860264  0.32828624     1.01400
C1146       C  0.39787933  0.41717123  0.35957306     1.14300
C1147       C  0.30138227  0.44562132  0.21364591     1.05100
O1148       O  0.24830394  0.48906448  0.27726482    -0.94500
O1149       O  0.21697778  0.44760701  0.34028036    -0.90300
O1150       O  0.22019973  0.43589892  0.41340177    -0.83400
C1151       C  0.20669763  0.44411539  0.37919097     1.11700
O1152       O  0.33465186  0.35624373  0.29814926    -0.96500
Zr1153     Zr  0.30396275  0.37767085  0.34957284     1.88900
O1154       O  0.24601553  0.37426676  0.42974632    -0.73100
O1155       O  0.22833139  0.42007674  0.26911623    -0.52400
O1156       O  0.28122797  0.35601709  0.28802492    -0.97100
O1157       O  0.33031299  0.34071387  0.38575402    -0.54300
O1158       O  0.26749270  0.34905840  0.37892771    -0.73700
C1159       C  0.24871031  0.35239537  0.40738694     0.98700
O1160       O  0.23745088  0.42223883  0.49606930    -0.62500
O1161       O  0.37696482  0.45231675  0.46992542    -0.57300
O1162       O  0.28148936  0.42484953  0.50605672    -0.94000
O1163       O  0.32785781  0.42698004  0.50755187    -0.92400
O1164       O  0.32868483  0.50723901  0.45655047    -0.92700
O1165       O  0.27564513  0.51646919  0.44408684    -0.91500
C1166       C  0.30442036  0.42729280  0.52620126     1.17500
H1167       H  0.35997191  0.47510071  0.38878761     0.33500
H1168       H  0.24935510  0.47348846  0.38899098     0.44300
H1169       H  0.30595968  0.37810894  0.44508929     0.37800
H1170       H  0.30355278  0.40851587  0.27205119     0.34300
H1171       H  0.28278508  0.53045443  0.32881491     0.26100
H1172       H  0.22713353  0.42949617  0.23962848     0.32100
H1173       H  0.28334489  0.33591806  0.29399290     0.38000
H1174       H  0.33690489  0.52501767  0.44642421     0.32400
H1175       H  0.36604348  0.46581862  0.48599967     0.31300
H1176       H  0.37953532  0.38224184  0.46695611     0.33000
H1177       H  0.32025182  0.33562073  0.41307963     0.31900
H1178       H  0.25856478  0.50564810  0.44722263     0.35900
H1179       H  0.22900547  0.44079591  0.49534976     0.28700
H1180       H  0.37437695  0.46332374  0.23516550     0.32900
H1181       H  0.33769016  0.37063777  0.27468361     0.35800
H1182       H  0.38469032  0.43984459  0.49336079     0.28400
H1183       H  0.22218511  0.40926377  0.49119036     0.41200
H1184       H  0.23213881  0.48444154  0.25913615     0.31300
H1185       H  0.25759951  0.52079487  0.35683273     0.38900
H1186       H  0.34716239  0.34985540  0.39612850     0.30800
H1187       H  0.23657002  0.40191059  0.26375118     0.30800
H1188       H  0.37266690  0.43086094  0.23664043     0.31100
Zr1189     Zr  0.03860628  0.48354123  0.96408221     2.17500
O1190       O  0.07600874  0.48725792  0.01720750    -0.51300
O1191       O  0.03882468  0.43376492  0.96630365    -0.74500
O1192       O  0.02382932  0.47892374  0.04135527    -0.81300
O1193       O  0.08526622  0.48643595  0.86390490    -0.83000
O1194       O  0.98135455  0.49754768  0.04564719    -0.78600
O1195       O  0.08472666  0.47573632  0.93767244    -0.90300
O1196       O  0.01150473  0.41980026  0.91065634    -0.76200
O1197       O  0.99141190  0.47184283  0.95772455    -0.85700
O1198       O  0.03196826  0.47101048  0.88905177    -0.85400
O1199       O  0.01449007  0.52479374  0.98078522    -0.72200
O1200       O  0.05285567  0.52207825  0.91792965    -0.84300
Zr1201     Zr  0.97299437  0.54035367  0.85311090     2.26400
Zr1202     Zr  0.96688567  0.51330979  0.97213736     2.06300
Zr1203     Zr  0.04373661  0.51027956  0.84338615     2.10000
Zr1204     Zr  0.98521039  0.45933837  0.88301540     1.78800
O1205       O  0.07591691  0.54732208  0.82564023    -0.93100
O1206       O  0.95024292  0.43181978  0.92090134    -0.40900
O1207       O  0.99657246  0.49856544  0.83612114    -0.77500
O1208       O  0.95972739  0.50010496  0.89747166    -0.96200
O1209       O  0.98084060  0.55200310  0.92762084    -0.89500
O1210       O  0.02020689  0.55199927  0.85776464    -0.92400
C1211       C  0.02923554  0.41517523  0.94145134     1.01400
C1212       C  0.09629744  0.47684851  0.89964851     1.14300
C1213       C  0.00278602  0.48638704  0.06309257     1.05100
O1214       O  0.93119875  0.48118919  0.99595750    -0.94500
O1215       O  0.92270418  0.53303672  0.94804596    -0.90300
O1216       O  0.92591132  0.54338265  0.87438770    -0.83400
C1217       C  0.91251422  0.54117983  0.91044523     1.11700
O1218       O  0.07060978  0.56811388  0.97420126    -0.96500
Zr1219     Zr  0.02812377  0.56259371  0.93314232     1.88900
O1220       O  0.97079016  0.59071098  0.86283115    -0.73100
O1221       O  0.95522210  0.54824789  0.02471902    -0.52400
O1222       O  0.02919898  0.59132487  0.99757142    -0.97100
O1223       O  0.05437714  0.59404430  0.88508282    -0.54300
O1224       O  0.99436472  0.59748270  0.92595778    -0.73700
C1225       C  0.97767416  0.60547758  0.89575811     0.98700
O1226       O  0.93532540  0.54684574  0.80047964    -0.62500
O1227       O  0.06178600  0.48628023  0.78052621    -0.57300
O1228       O  0.98551423  0.54049991  0.77480071    -0.94000
O1229       O  0.02556368  0.51759037  0.76997430    -0.92400
O1230       O  0.99656850  0.43084266  0.82117973    -0.92700
O1231       O  0.94801443  0.45103512  0.83136825    -0.91500
C1232       C  0.00452686  0.52928793  0.75268116     1.17500
H1233       H  0.04338294  0.45575940  0.88138782     0.33500
H1234       H  0.94080544  0.49548457  0.89271313     0.44300
H1235       H  0.02458151  0.56664764  0.83656014     0.37800
H1236       H  0.01838667  0.53000231  0.01063354     0.34300
H1237       H  0.95669571  0.42966256  0.95188945     0.26100
H1238       H  0.95348896  0.56560659  0.00670746     0.32100
H1239       H  0.01083865  0.58925277  0.01070050     0.38000
H1240       H  0.01669413  0.43187331  0.81913545     0.32400
H1241       H  0.08160050  0.49027259  0.77991137     0.31300
H1242       H  0.08745330  0.54861078  0.85247926     0.33000
H1243       H  0.06518053  0.60546128  0.90533427     0.31900
H1244       H  0.94502140  0.46911664  0.81587965     0.35900
H1245       H  0.93995234  0.56327381  0.78160374     0.28700
H1246       H  0.07515284  0.47030702  0.03638559     0.32900
H1247       H  0.08518322  0.56510932  0.95242323     0.35800
H1248       H  0.06028490  0.46642969  0.78891803     0.28400
H1249       H  0.93570413  0.53097346  0.78073406     0.41200
H1250       H  0.92035225  0.49149148  0.01734089     0.31300
H1251       H  0.93425897  0.44417189  0.92228506     0.38900
H1252       H  0.04081237  0.60693338  0.87162465     0.30800
H1253       H  0.93637637  0.54370757  0.03405211     0.30800
H1254       H  0.07099744  0.50250602  0.03650171     0.31100
Zr1255     Zr  0.96796678  0.52407358  0.46413780     2.17500
O1256       O  0.93199283  0.51405151  0.51769536    -0.51300
O1257       O  0.96484770  0.57360883  0.46531419    -0.74500
O1258       O  0.98305236  0.53009381  0.53965158    -0.81300
O1259       O  0.91811766  0.51966896  0.36860438    -0.83000
O1260       O  0.02584914  0.51220235  0.54560738    -0.78600
O1261       O  0.92107190  0.53026811  0.44095991    -0.90300
O1262       O  0.99669362  0.59204716  0.41852141    -0.76200
O1263       O  0.01426366  0.53874482  0.45708595    -0.85700
O1264       O  0.97291015  0.54038701  0.38947131    -0.85400
O1265       O  0.99457872  0.48387227  0.48297289    -0.72200
O1266       O  0.95484479  0.48668608  0.41883074    -0.84300
Zr1267     Zr  0.03402646  0.47572594  0.35450255     2.26400
Zr1268     Zr  0.04105916  0.49842366  0.47301510     2.06300
Zr1269     Zr  0.96179030  0.50259700  0.34419303     2.10000
Zr1270     Zr  0.01906999  0.55441300  0.38234033     1.78800
O1271       O  0.93006981  0.46825061  0.31712725    -0.93100
O1272       O  0.05865370  0.57803806  0.41232616    -0.40900
O1273       O  0.00815757  0.51656461  0.33652008    -0.77500
O1274       O  0.04688383  0.51474539  0.39783229    -0.96200
O1275       O  0.02857746  0.46028908  0.42937339    -0.89500
O1276       O  0.98752013  0.46159294  0.36080453    -0.92400
C1277       C  0.97717538  0.59397977  0.44619556     1.01400
C1278       C  0.90782079  0.52820341  0.40456840     1.14300
C1279       C  0.00440218  0.52307413  0.56191478     1.05100
O1280       O  0.07413389  0.53144239  0.50024672    -0.94500
O1281       O  0.08574433  0.48276503  0.44885949    -0.90300
O1282       O  0.08120267  0.47226806  0.37647176    -0.83400
C1283       C  0.09521740  0.47494373  0.41182823     1.11700
O1284       O  0.94775250  0.44188676  0.49383357    -0.96500
Zr1285     Zr  0.98198299  0.44725249  0.43620342     1.88900
O1286       O  0.03959366  0.42565997  0.36017599    -0.73100
O1287       O  0.05778126  0.46135936  0.52236147    -0.52400
O1288       O  0.98607389  0.41025888  0.49241436    -0.97100
O1289       O  0.94768651  0.42204150  0.39505186    -0.54300
O1290       O  0.01328961  0.41176175  0.41788664    -0.73700
C1291       C  0.03113374  0.40730383  0.38848145     0.98700
O1292       O  0.06512605  0.47860249  0.29187439    -0.62500
O1293       O  0.94602573  0.53749353  0.29002922    -0.57300
O1294       O  0.02027075  0.47333890  0.27756600    -0.94000
O1295       O  0.97883198  0.49405945  0.27087452    -0.92400
O1296       O  0.00284442  0.58900510  0.32826418    -0.92700
O1297       O  0.04800252  0.56448628  0.31872168    -0.91500
C1298       C  0.00012512  0.48296547  0.25469528     1.17500
H1299       H  0.96080344  0.55567983  0.38273890     0.33500
H1300       H  0.06550074  0.52029254  0.39246138     0.44300
H1301       H  0.98325683  0.44703747  0.34079681     0.37800
H1302       H  0.99139357  0.47773334  0.51321231     0.34300
H1303       H  0.06120775  0.59445064  0.39237419     0.26100
H1304       H  0.05809102  0.46906371  0.55220957     0.32100
H1305       H  0.97732447  0.39398759  0.47925328     0.38000
H1306       H  0.98564594  0.58126928  0.31657747     0.32400
H1307       H  0.92820595  0.53056667  0.27944115     0.31300
H1308       H  0.92168098  0.47716572  0.29045316     0.33000
H1309       H  0.93152057  0.43423022  0.39442611     0.31900
H1310       H  0.05496667  0.54627099  0.31025957     0.35900
H1311       H  0.07772737  0.49407955  0.29779456     0.28700
H1312       H  0.93063747  0.53063676  0.53576147     0.32900
H1313       H  0.93251167  0.45396429  0.48384541     0.35800
H1314       H  0.94145694  0.55381579  0.30727072     0.28400
H1315       H  0.07651572  0.46177013  0.29425536     0.41200
H1316       H  0.08235368  0.52204423  0.52666024     0.31300
H1317       H  0.05219837  0.58565033  0.44030914     0.38900
H1318       H  0.94245437  0.40644919  0.41524374     0.30800
H1319       H  0.04288149  0.44751482  0.52322002     0.30800
H1320       H  0.93937961  0.49941439  0.53799890     0.31100
C1321       C  0.00333956  0.52535209  0.61058424    -0.05300
C1322       C  0.00635914  0.50116514  0.63742554    -0.02400
C1323       C  0.00541216  0.50250679  0.68368757     0.02600
C1324       C  0.00191947  0.52814668  0.70385499    -0.05300
C1325       C  0.99722404  0.55213182  0.67707392    -0.02400
C1326       C  0.99778486  0.55070825  0.63046028     0.02600
C1327       C  0.00912428  0.47450542  0.61739623     0.37300
C1328       C  0.99239626  0.57832327  0.69736337     0.37200
C1329       C  0.99305920  0.57540580  0.60315947     0.35700
C1330       C  0.00682183  0.47709997  0.71043207     0.35700
N1331       N  0.98906204  0.59523126  0.58173956    -0.39200
N1332       N  0.00775811  0.45667291  0.73129878    -0.39200
N1333       N  0.98841504  0.59920060  0.71356641    -0.38600
N1334       N  0.01111183  0.45322015  0.60155535    -0.38600
C1335       C  0.00395851  0.48469513  0.11225743    -0.05300
C1336       C  0.00210646  0.50941782  0.13557180    -0.02400
C1337       C  0.00157242  0.50864268  0.18206038     0.02600
C1338       C  0.00227323  0.48312595  0.20587174    -0.05300
C1339       C  0.00552809  0.45845224  0.18298384    -0.02400
C1340       C  0.00663361  0.45924458  0.13618778     0.02600
C1341       C  0.00167265  0.53592972  0.11175621     0.37300
C1342       C  0.00708015  0.43230229  0.20764893     0.37200
C1343       C  0.01007698  0.43390655  0.11284651     0.35700
C1344       C  0.00153067  0.53426889  0.20563061     0.35700
N1345       N  0.01301908  0.41358409  0.09449556    -0.39200
N1346       N  0.00177767  0.55456241  0.22469990    -0.39200
N1347       N  0.00829996  0.41158668  0.22775552    -0.38600
N1348       N  0.00142864  0.55713480  0.09299075    -0.38600
C1349       C  0.17783731  0.45174902  0.38690517    -0.05300
C1350       C  0.16124489  0.43498714  0.41532051    -0.02400
C1351       C  0.13481951  0.44368346  0.42636592     0.02600
C1352       C  0.12447202  0.46864618  0.40813460    -0.05300
C1353       C  0.14098869  0.48558003  0.38046575    -0.02400
C1354       C  0.16772878  0.47744394  0.37048492     0.02600
C1355       C  0.17088146  0.40839375  0.43249800     0.37300
C1356       C  0.13045711  0.51165411  0.36263487     0.37200
C1357       C  0.18514411  0.49632933  0.34526204     0.35700
C1358       C  0.11776230  0.42636566  0.45496444     0.35700
N1359       N  0.19887442  0.51171594  0.32549297    -0.39200
N1360       N  0.10410081  0.41253770  0.47760897    -0.39200
N1361       N  0.12204370  0.53243793  0.34846882    -0.38600
N1362       N  0.17825296  0.38716120  0.44651459    -0.38600
C1363       C  0.17939516  0.45112249  0.88186825    -0.05300
C1364       C  0.17281724  0.46924496  0.91595457    -0.02400
C1365       C  0.14556689  0.47720066  0.92253082     0.02600
C1366       C  0.12457167  0.46657992  0.89588556    -0.05300
C1367       C  0.13100641  0.44786710  0.86269939    -0.02400
C1368       C  0.15837359  0.44087599  0.85474326     0.02600
C1369       C  0.19427086  0.48104758  0.94279992     0.37300
C1370       C  0.10934505  0.43498907  0.83766858     0.37200
C1371       C  0.16471204  0.42289376  0.81889632     0.35700
C1372       C  0.13937549  0.49747659  0.95516652     0.35700
N1373       N  0.16960612  0.40870464  0.79003783    -0.39200
N1374       N  0.13449507  0.51379022  0.98097409    -0.39200
N1375       N  0.09213466  0.42440910  0.81802175    -0.38600
N1376       N  0.21139521  0.49047910  0.96410854    -0.38600
C1377       C  0.30430173  0.44161169  0.66560362    -0.05300
C1378       C  0.31617908  0.41736873  0.64950051    -0.02400
C1379       C  0.31553301  0.41235436  0.60398629     0.02600
C1380       C  0.30371788  0.43183366  0.57416502    -0.05300
C1381       C  0.29156473  0.45591567  0.59020672    -0.02400
C1382       C  0.29187286  0.46079432  0.63587090     0.02600
C1383       C  0.32820853  0.39693033  0.67983543     0.37300
C1384       C  0.27870939  0.47573741  0.55983247     0.37200
C1385       C  0.27996233  0.48581280  0.65216259     0.35700
C1386       C  0.32543100  0.38632897  0.58809614     0.35700
N1387       N  0.27050629  0.50580797  0.66509731    -0.39200
N1388       N  0.33289830  0.36539225  0.57554476    -0.39200
N1389       N  0.26817094  0.49160258  0.53600475    -0.38600
N1390       N  0.33786643  0.38049652  0.70370163    -0.38600
C1391       C  0.30555934  0.43034522  0.07394391    -0.05300
C1392       C  0.31870203  0.45372296  0.09120606    -0.02400
C1393       C  0.31769088  0.45858745  0.13688286     0.02600
C1394       C  0.30240081  0.44089901  0.16539451    -0.05300
C1395       C  0.28988466  0.41712051  0.14820573    -0.02400
C1396       C  0.29157283  0.41183864  0.10278615     0.02600
C1397       C  0.33235613  0.47353209  0.06189445     0.37300
C1398       C  0.27679920  0.39689576  0.17748578     0.37200
C1399       C  0.27990836  0.38663949  0.08603473     0.35700
C1400       C  0.33256720  0.48175529  0.15445543     0.35700
N1401       N  0.27076355  0.36646742  0.07276109    -0.39200
N1402       N  0.34481419  0.49998378  0.16845621    -0.39200
N1403       N  0.26647717  0.38029914  0.20014089    -0.38600
N1404       N  0.34311305  0.48970748  0.03899383    -0.38600
C1405       C  0.06481824  0.32801095  0.42017140    -0.05300
C1406       C  0.08202981  0.34868618  0.40163358    -0.02400
C1407       C  0.07096467  0.37423017  0.38657024     0.02600
C1408       C  0.04260895  0.37895984  0.38999611    -0.05300
C1409       C  0.02528862  0.35683525  0.40330268    -0.02400
C1410       C  0.03634587  0.33191621  0.41996677     0.02600
C1411       C  0.11116370  0.34381811  0.39919594     0.37300
C1412       C  0.99588959  0.35936562  0.39842028     0.37200
C1413       C  0.01814927  0.31019495  0.43620792     0.35700
C1414       C  0.08871166  0.39521775  0.36713057     0.35700
N1415       N  0.00324062  0.29326502  0.44915837    -0.39200
N1416       N  0.10292061  0.41163537  0.35072197    -0.39200
N1417       N  0.97248794  0.36113255  0.39410460    -0.38600
N1418       N  0.13435631  0.33968359  0.39735979    -0.38600
C1419       C  0.18940687  0.28581317  0.42307705    -0.05300
C1420       C  0.19775314  0.29542186  0.38055249    -0.02400
C1421       C  0.21621445  0.31774235  0.37571636     0.02600
C1422       C  0.22811533  0.32977246  0.41324264    -0.05300
C1423       C  0.21955086  0.32064316  0.45571886    -0.02400
C1424       C  0.20010451  0.29911333  0.46063365     0.02600
C1425       C  0.18765529  0.28237383  0.34123982     0.37300
C1426       C  0.23042760  0.33371198  0.49455526     0.37200
C1427       C  0.19020002  0.29182518  0.50454639     0.35700
C1428       C  0.22101977  0.32979216  0.33186881     0.35700
N1429       N  0.18231833  0.28632606  0.53970375    -0.39200
N1430       N  0.22404689  0.33952959  0.29680052    -0.39200
N1431       N  0.23899160  0.34441836  0.52533307    -0.38600
N1432       N  0.17979983  0.27225527  0.30950236    -0.38600
C1433       C  0.06095921  0.33244575  0.95707416    -0.05300
C1434       C  0.07762777  0.35500245  0.96719144    -0.02400
C1435       C  0.06767205  0.38205512  0.96072860     0.02600
C1436       C  0.03999274  0.38660462  0.94802477    -0.05300
C1437       C  0.02280572  0.36354748  0.94136297    -0.02400
C1438       C  0.03345756  0.33665187  0.94488039     0.02600
C1439       C  0.10477164  0.35040291  0.98546419     0.37300
C1440       C  0.99382573  0.36713061  0.93296121     0.37200
C1441       C  0.01563530  0.31317523  0.93795612     0.35700
C1442       C  0.08654999  0.40481197  0.96614175     0.35700
N1443       N  0.00108562  0.29470248  0.93274390    -0.39200
N1444       N  0.10223976  0.42235817  0.97091251    -0.39200
N1445       N  0.97065936  0.36971366  0.92659237    -0.38600
N1446       N  0.12628157  0.34698917  0.00064905    -0.38600
C1447       C  0.18598344  0.28533619  0.91756351    -0.05300
C1448       C  0.17916818  0.31357504  0.91147392    -0.02400
C1449       C  0.19967857  0.33409482  0.91104096     0.02600
C1450       C  0.22756556  0.32689905  0.91440129    -0.05300
C1451       C  0.23454579  0.29859739  0.91863095    -0.02400
C1452       C  0.21392005  0.27799955  0.92044665     0.02600
C1453       C  0.15100197  0.32192781  0.90481596     0.37300
C1454       C  0.26292102  0.29041070  0.92195871     0.37200
C1455       C  0.22165592  0.24911588  0.92287397     0.35700
C1456       C  0.19168640  0.36275282  0.90586006     0.35700
N1457       N  0.22801335  0.22612765  0.92439125    -0.39200
N1458       N  0.18452894  0.38539597  0.90213567    -0.39200
N1459       N  0.28536413  0.28320843  0.92471634    -0.38600
N1460       N  0.12875528  0.32892712  0.89834875    -0.38600
C1461       C  0.07690893  0.21374733  0.66375368    -0.05300
C1462       C  0.09752279  0.19706793  0.68378717    -0.02400
C1463       C  0.10132680  0.19615973  0.73003734     0.02600
C1464       C  0.08513019  0.21257732  0.75720335    -0.05300
C1465       C  0.06515590  0.23013213  0.73701522    -0.02400
C1466       C  0.06114713  0.23074568  0.69054233     0.02600
C1467       C  0.11612183  0.18186977  0.65663814     0.37300
C1468       C  0.04783636  0.24685701  0.76392179     0.37200
C1469       C  0.04045734  0.24855255  0.67048370     0.35700
C1470       C  0.12266776  0.17875299  0.74925587     0.35700
N1471       N  0.02398712  0.26290115  0.65469944    -0.39200
N1472       N  0.13971592  0.16468955  0.76395976    -0.39200
N1473       N  0.03380287  0.26032386  0.78484939    -0.38600
N1474       N  0.13123625  0.16987065  0.63536753    -0.38600
C1475       C  0.07979026  0.20114204  0.16747959    -0.05300
C1476       C  0.10470270  0.21173692  0.18373691    -0.02400
C1477       C  0.11135345  0.20878290  0.22894845     0.02600
C1478       C  0.09322574  0.19527420  0.25842539    -0.05300
C1479       C  0.06904479  0.18326176  0.24182516    -0.02400
C1480       C  0.06232550  0.18622558  0.19646688     0.02600
C1481       C  0.12433123  0.22450454  0.15374453     0.37300
C1482       C  0.05080824  0.16805580  0.27123346     0.37200
C1483       C  0.03719428  0.17437140  0.17986776     0.35700
C1484       C  0.13758759  0.21838762  0.24478022     0.35700
N1485       N  0.01714186  0.16482055  0.16685638    -0.39200
N1486       N  0.15874202  0.22567867  0.25697171    -0.39200
N1487       N  0.03611299  0.15548019  0.29390896    -0.38600
N1488       N  0.14038381  0.23452923  0.13038692    -0.38600
C1489       C  0.82594323  0.55912822  0.38749463    -0.05300
C1490       C  0.84433493  0.57224442  0.41635112    -0.02400
C1491       C  0.86999879  0.56039590  0.42600318     0.02600
C1492       C  0.87876010  0.53702486  0.40308154    -0.05300
C1493       C  0.85984743  0.52313761  0.37618216    -0.02400
C1494       C  0.83346079  0.53379464  0.36921780     0.02600
C1495       C  0.83740359  0.59844633  0.43524259     0.37300
C1496       C  0.86671060  0.49673365  0.35792822     0.37200
C1497       C  0.81372017  0.51748841  0.34538465     0.35700
C1498       C  0.88680572  0.57211659  0.46035761     0.35700
N1499       N  0.79843903  0.50372207  0.32684253    -0.39200
N1500       N  0.89977762  0.58124869  0.48846024    -0.39200
N1501       N  0.87165316  0.47555645  0.34344035    -0.38600
N1502       N  0.83214123  0.61939620  0.45027343    -0.38600
C1503       C  0.82854309  0.56488085  0.88712100    -0.05300
C1504       C  0.83898170  0.54024082  0.86998896    -0.02400
C1505       C  0.86627057  0.53237498  0.87845980     0.02600
C1506       C  0.88301568  0.54786417  0.90662782    -0.05300
C1507       C  0.87235856  0.57156203  0.92587024    -0.02400
C1508       C  0.84560401  0.58056331  0.91508672     0.02600
C1509       C  0.82143560  0.52191524  0.84564335     0.37300
C1510       C  0.88932423  0.58723189  0.95551564     0.37200
C1511       C  0.83612773  0.60658599  0.93153307     0.35700
C1512       C  0.87716420  0.50799264  0.85837207     0.35700
N1513       N  0.82853113  0.62738291  0.94445281    -0.39200
N1514       N  0.88597901  0.48868224  0.84221857    -0.39200
N1515       N  0.90292858  0.59961181  0.97922020    -0.38600
N1516       N  0.80770324  0.50678553  0.82672858    -0.38600
C1517       C  0.70287322  0.57865559  0.66457475    -0.05300
C1518       C  0.71520756  0.56009947  0.63609251    -0.02400
C1519       C  0.71337560  0.56465118  0.58982712     0.02600
C1520       C  0.70019499  0.58847125  0.57164356    -0.05300
C1521       C  0.68817274  0.60724013  0.60019531    -0.02400
C1522       C  0.68944507  0.60232007  0.64637724     0.02600
C1523       C  0.72957084  0.53616816  0.65436674     0.37300
C1524       C  0.67542261  0.63223188  0.58224368     0.37200
C1525       C  0.67818577  0.62257366  0.67521110     0.35700
C1526       C  0.72413045  0.54411806  0.56098178     0.35700
N1527       N  0.66936337  0.63897602  0.69792888    -0.39200
N1528       N  0.73258347  0.52752318  0.53822933    -0.39200
N1529       N  0.66530888  0.65222243  0.56810104    -0.38600
N1530       N  0.74121290  0.51718922  0.66896124    -0.38600
C1531       C  0.70170101  0.58824177  0.07189306    -0.05300
C1532       C  0.71517306  0.56470704  0.09055576    -0.02400
C1533       C  0.71589399  0.55994550  0.13677278     0.02600
C1534       C  0.70338220  0.57873619  0.16460152    -0.05300
C1535       C  0.69014494  0.60237438  0.14602755    -0.02400
C1536       C  0.68924799  0.60705455  0.09986690     0.02600
C1537       C  0.72766394  0.54482579  0.06230803     0.37300
C1538       C  0.67815148  0.62250769  0.17443141     0.37200
C1539       C  0.67637894  0.63181863  0.08133694     0.35700
C1540       C  0.72857115  0.53517010  0.15561626     0.35700
N1541       N  0.66612914  0.65161672  0.06674524    -0.39200
N1542       N  0.73851468  0.51531693  0.17060719    -0.39200
N1543       N  0.66856089  0.63865631  0.19685420    -0.38600
N1544       N  0.73775251  0.52884096  0.04014794    -0.38600
C1545       C  0.96690681  0.62165886  0.45531334    -0.05300
C1546       C  0.98210762  0.63961471  0.48147829    -0.02400
C1547       C  0.97134961  0.66553004  0.49167516     0.02600
C1548       C  0.94494800  0.67337187  0.47654739    -0.05300
C1549       C  0.92989317  0.65516555  0.44982990    -0.02400
C1550       C  0.94133990  0.62987246  0.43805027     0.02600
C1551       C  0.00935910  0.63195124  0.49623083     0.37300
C1552       C  0.90271330  0.66228040  0.43396497     0.37200
C1553       C  0.92795545  0.61325137  0.40517373     0.35700
C1554       C  0.98854654  0.68480262  0.51475688     0.35700
N1555       N  0.91778154  0.60017355  0.37829477    -0.39200
N1556       N  0.00267945  0.70001872  0.53271861    -0.39200
N1557       N  0.88100637  0.66747372  0.42096146    -0.38600
N1558       N  0.03119334  0.62610706  0.50782181    -0.38600
C1559       C  0.82159219  0.72757581  0.43453050    -0.05300
C1560       C  0.80743320  0.72921573  0.39397865    -0.02400
C1561       C  0.78572561  0.71082217  0.38569095     0.02600
C1562       C  0.77781369  0.69056405  0.41843982    -0.05300
C1563       C  0.79076039  0.69083839  0.46055721    -0.02400
C1564       C  0.81296075  0.70867601  0.46802583     0.02600
C1565       C  0.81476914  0.75048922  0.36119914     0.37300
C1566       C  0.78057506  0.67389306  0.49734437     0.37200
C1567       C  0.82740451  0.70709888  0.51010534     0.35700
C1568       C  0.77187633  0.71327728  0.34324219     0.35700
N1569       N  0.83894229  0.70572933  0.54359307    -0.39200
N1570       N  0.76097939  0.71598546  0.30933719    -0.39200
N1571       N  0.77247680  0.66086610  0.52723271    -0.38600
N1572       N  0.82045088  0.76764624  0.33532505    -0.38600
C1573       C  0.94100188  0.67802269  0.94474767    -0.05300
C1574       C  0.92487650  0.65994379  0.91940021    -0.02400
C1575       C  0.93711048  0.63749699  0.89838049     0.02600
C1576       C  0.96544720  0.63295505  0.90300933    -0.05300
C1577       C  0.98166741  0.65280814  0.92440065    -0.02400
C1578       C  0.96952465  0.67462714  0.94607805     0.02600
C1579       C  0.89574371  0.66450371  0.91490191     0.37300
C1580       C  0.01125489  0.65140033  0.92345219     0.37200
C1581       C  0.98692470  0.69455060  0.96754568     0.35700
C1582       C  0.92068555  0.61956937  0.87145129     0.35700
N1583       N  0.00111516  0.71024565  0.98430533    -0.39200
N1584       N  0.90769542  0.60556662  0.84925248    -0.39200
N1585       N  0.03484346  0.65108828  0.92335805    -0.38600
N1586       N  0.87256037  0.66841403  0.91111726    -0.38600
C1587       C  0.81279499  0.73048082  0.94529951    -0.05300
C1588       C  0.80477830  0.71056731  0.97788296    -0.02400
C1589       C  0.78382278  0.69152420  0.96874286     0.02600
C1590       C  0.77156972  0.69136284  0.92608886    -0.05300
C1591       C  0.77824592  0.71288236  0.89487014    -0.02400
C1592       C  0.79861011  0.73232970  0.90471782     0.02600
C1593       C  0.81891460  0.70873998  0.02020239     0.37300
C1594       C  0.76491549  0.71512025  0.85193005     0.37200
C1595       C  0.80469421  0.75470080  0.87317270     0.35700
C1596       C  0.77465831  0.67251400  0.00377852     0.35700
N1597       N  0.80934940  0.77269491  0.84824167    -0.39200
N1598       N  0.76728713  0.65748384  0.03179140    -0.39200
N1599       N  0.75433168  0.71735088  0.81770132    -0.38600
N1600       N  0.83019260  0.70718245  0.05391504    -0.38600
C1601       C  0.92829888  0.80277775  0.68708253    -0.05300
C1602       C  0.90499943  0.78943058  0.70535561    -0.02400
C1603       C  0.89790005  0.79289107  0.74993319     0.02600
C1604       C  0.91380180  0.80979420  0.77719214    -0.05300
C1605       C  0.93645595  0.82409761  0.75863750    -0.02400
C1606       C  0.94361915  0.82065385  0.71387323     0.02600
C1607       C  0.88699825  0.77341176  0.67787090     0.37300
C1608       C  0.95295005  0.84188212  0.78570765     0.37200
C1609       C  0.96709542  0.83525713  0.69568003     0.35700
C1610       C  0.87334411  0.77983881  0.76724063     0.35700
N1611       N  0.98576686  0.84702710  0.68123016    -0.39200
N1612       N  0.85363971  0.76946452  0.78058880    -0.39200
N1613       N  0.96615700  0.85629309  0.80686359    -0.38600
N1614       N  0.87202285  0.76076186  0.65682193    -0.38600
C1615       C  0.93849137  0.79168893  0.18388838    -0.05300
C1616       C  0.91757066  0.77596750  0.20509784    -0.02400
C1617       C  0.91236928  0.77854609  0.25069960     0.02600
C1618       C  0.92733969  0.79749232  0.27594797    -0.05300
C1619       C  0.94811111  0.81338159  0.25487351    -0.02400
C1620       C  0.95397701  0.81010159  0.20953645     0.02600
C1621       C  0.89977393  0.75831462  0.18000752     0.37300
C1622       C  0.96392234  0.83293757  0.27978787     0.37200
C1623       C  0.97653496  0.82532800  0.18959979     0.35700
C1624       C  0.89048807  0.76243755  0.27106480     0.35700
N1625       N  0.99468073  0.83739199  0.17401013    -0.39200
N1626       N  0.87308378  0.74943152  0.28699064    -0.39200
N1627       N  0.97658292  0.84876956  0.29912947    -0.38600
N1628       N  0.88477765  0.74417651  0.16159796    -0.38600
C1629       C  0.13238445  0.02758805  0.51837963    -0.05300
C1630       C  0.14156621  0.04937520  0.54415913    -0.02400
C1631       C  0.13066192  0.07602597  0.53704755     0.02600
C1632       C  0.11054564  0.08081233  0.50386539    -0.05300
C1633       C  0.09896579  0.05818948  0.48231152    -0.02400
C1634       C  0.10988055  0.03159284  0.48962678     0.02600
C1635       C  0.16367217  0.04472291  0.57558283     0.37300
C1636       C  0.07607811  0.06220974  0.45221941     0.37200
C1637       C  0.09917269  0.00865480  0.46525563     0.35700
C1638       C  0.14173616  0.09869313  0.56162940     0.35700
N1639       N  0.09042995  0.99047877  0.44575496    -0.39200
N1640       N  0.15076103  0.11653795  0.58158630    -0.39200
N1641       N  0.05772664  0.06498730  0.42827443    -0.38600
N1642       N  0.18134734  0.04111951  0.60062608    -0.38600
C1643       C  0.02914337  0.87518724  0.51453404    -0.05300
C1644       C  0.03218891  0.89482094  0.47935805    -0.02400
C1645       C  0.05803359  0.90616662  0.46917978     0.02600
C1646       C  0.08114769  0.89815719  0.49458501    -0.05300
C1647       C  0.07755583  0.88001026  0.53206735    -0.02400
C1648       C  0.05161708  0.86877504  0.54200987     0.02600
C1649       C  0.00885401  0.90221436  0.45188797     0.37300
C1650       C  0.10079473  0.87085685  0.55857634     0.37200
C1651       C  0.04832212  0.84922165  0.57899590     0.35700
C1652       C  0.06064622  0.92551555  0.43181528     0.35700
N1653       N  0.04576740  0.83368244  0.60857845    -0.39200
N1654       N  0.06212665  0.94073435  0.40161940    -0.39200
N1655       N  0.11913959  0.86325334  0.57989787    -0.38600
N1656       N  0.99042663  0.90831428  0.42966765    -0.38600
C1657       C  0.13085261  0.02889951  0.99804564    -0.05300
C1658       C  0.13873878  0.04989652  0.02640909    -0.02400
C1659       C  0.12871627  0.07688304  0.01905431     0.02600
C1660       C  0.11092663  0.08292171  0.98280038    -0.05300
C1661       C  0.10133332  0.06122741  0.95686590    -0.02400
C1662       C  0.11092598  0.03418674  0.96510194     0.02600
C1663       C  0.15790826  0.04382466  0.06216900     0.37300
C1664       C  0.08190612  0.06660132  0.92131602     0.37200
C1665       C  0.10109366  0.01182304  0.93855364     0.35700
C1666       C  0.13801960  0.09858570  0.04745252     0.35700
N1667       N  0.09306745  0.99396873  0.91758744    -0.39200
N1668       N  0.14546826  0.11571438  0.07040140    -0.39200
N1669       N  0.06659865  0.07055105  0.89254958    -0.38600
N1670       N  0.17304058  0.03897634  0.09089665    -0.38600
C1671       C  0.20647261  0.92166973  0.75885687    -0.05300
C1672       C  0.19148566  0.94302516  0.73728268    -0.02400
C1673       C  0.19435557  0.94812954  0.69147673     0.02600
C1674       C  0.21203072  0.93173326  0.66664872    -0.05300
C1675       C  0.22749165  0.91074160  0.68851757    -0.02400
C1676       C  0.22527685  0.90626829  0.73457257     0.02600
C1677       C  0.17433358  0.96093688  0.76255675     0.37300
C1678       C  0.24449233  0.89243217  0.66374700     0.37200
C1679       C  0.24262376  0.88583303  0.75678247     0.35700
C1680       C  0.17929814  0.97062795  0.67006240     0.35700
N1681       N  0.25704230  0.86995112  0.77412516    -0.39200
N1682       N  0.16714646  0.98849738  0.65307845    -0.39200
N1683       N  0.25797286  0.87728142  0.64492864    -0.38600
N1684       N  0.16082623  0.97547321  0.78251513    -0.38600
C1685       C  0.19861663  0.93659159  0.16434825    -0.05300
C1686       C  0.18304842  0.91464510  0.18360863    -0.02400
C1687       C  0.18123316  0.91129399  0.22990190     0.02600
C1688       C  0.19532937  0.92950756  0.25737287    -0.05300
C1689       C  0.21072204  0.95157983  0.23810468    -0.02400
C1690       C  0.21223777  0.95515319  0.19176181     0.02600
C1691       C  0.16993528  0.89453760  0.15592150     0.37300
C1692       C  0.22462502  0.97107306  0.26587405     0.37200
C1693       C  0.22715895  0.97839619  0.17227156     0.35700
C1694       C  0.16591549  0.88824900  0.24918954     0.35700
N1695       N  0.23892413  0.99697585  0.15659816    -0.39200
N1696       N  0.15370606  0.86987377  0.26455267    -0.39200
N1697       N  0.23579762  0.98669343  0.28777777    -0.38600
N1698       N  0.15954186  0.87846472  0.13389269    -0.38600
C1699       C  0.08188607  0.88906422  0.98410542    -0.05300
C1700       C  0.07834187  0.86937374  0.01939187    -0.02400
C1701       C  0.05212239  0.85911668  0.02984114     0.02600
C1702       C  0.02926176  0.86857854  0.00552937    -0.05300
C1703       C  0.03247837  0.88963293  0.97251981    -0.02400
C1704       C  0.05870829  0.89966219  0.96150984     0.02600
C1705       C  0.10170710  0.85862262  0.04393435     0.37300
C1706       C  0.00871666  0.90041806  0.94897326     0.37200
C1707       C  0.06174326  0.92097391  0.92707359     0.35700
C1708       C  0.04866513  0.83805406  0.06461950     0.35700
N1709       N  0.06402276  0.93791873  0.89946584    -0.39200
N1710       N  0.04587234  0.82135510  0.09249023    -0.39200
N1711       N  0.98979853  0.90918984  0.93030421    -0.38600
N1712       N  0.12005896  0.84982391  0.06400558    -0.38600
C1713       C  0.53192466  0.64595881  0.31005394    -0.05300
C1714       C  0.55600061  0.65553939  0.28950840    -0.02400
C1715       C  0.58140198  0.64401418  0.30191291     0.02600
C1716       C  0.58306186  0.62356052  0.33640193    -0.05300
C1717       C  0.55891546  0.61342654  0.35610929    -0.02400
C1718       C  0.53340889  0.62420673  0.34226597     0.02600
C1719       C  0.55468957  0.67855858  0.25758539     0.37300
C1720       C  0.56036481  0.59218380  0.39099034     0.37200
C1721       C  0.50868294  0.61378317  0.36264469     0.35700
C1722       C  0.60597049  0.65433775  0.28062190     0.35700
N1723       N  0.48897854  0.60524281  0.37882882    -0.39200
N1724       N  0.62543714  0.66267810  0.26335698    -0.39200
N1725       N  0.56165934  0.57540866  0.41906429    -0.38600
N1726       N  0.55347054  0.69706398  0.23245528    -0.38600
C1727       C  0.27792373  0.82695998  0.39969128    -0.05300
C1728       C  0.29411254  0.81299128  0.43233719    -0.02400
C1729       C  0.31488953  0.79471462  0.42002047     0.02600
C1730       C  0.32034980  0.79053931  0.37490371    -0.05300
C1731       C  0.30364893  0.80376308  0.34227945    -0.02400
C1732       C  0.28228493  0.82142081  0.35464777     0.02600
C1733       C  0.29032772  0.81798024  0.47887323     0.37300
C1734       C  0.30908254  0.80041080  0.29574013     0.37200
C1735       C  0.26430583  0.83331630  0.32082695     0.35700
C1736       C  0.33056523  0.77991923  0.45413692     0.35700
N1737       N  0.24985335  0.84258569  0.29384324    -0.39200
N1738       N  0.34315620  0.76806444  0.48109224    -0.39200
N1739       N  0.31320386  0.79812616  0.25845718    -0.38600
N1740       N  0.28764956  0.82162384  0.51616676    -0.38600
C1741       C  0.39694509  0.59576891  0.32151553    -0.05300
C1742       C  0.40365626  0.57535484  0.35425884    -0.02400
C1743       C  0.39120550  0.54913648  0.35389681     0.02600
C1744       C  0.37190194  0.54293409  0.32091083    -0.05300
C1745       C  0.36657383  0.56240501  0.28634401    -0.02400
C1746       C  0.37920700  0.58870133  0.28635507     0.02600
C1747       C  0.42331809  0.58104526  0.38877198     0.37300
C1748       C  0.34709195  0.55587138  0.25195622     0.37200
C1749       C  0.37272633  0.60874439  0.25122444     0.35700
C1750       C  0.39768740  0.52867332  0.38853499     0.35700
N1751       N  0.36749835  0.62440770  0.22274538    -0.39200
N1752       N  0.40301270  0.51249659  0.41623751    -0.39200
N1753       N  0.33155199  0.55084517  0.22440303    -0.38600
N1754       N  0.43879977  0.58481318  0.41694963    -0.38600
C1755       C  0.52770518  0.64008854  0.81387109    -0.05300
C1756       C  0.54962704  0.64372120  0.78460751    -0.02400
C1757       C  0.57569007  0.63308975  0.79596879     0.02600
C1758       C  0.58023557  0.61853213  0.83708807    -0.05300
C1759       C  0.55773815  0.61367114  0.86526723    -0.02400
C1760       C  0.53174649  0.62443074  0.85376153     0.02600
C1761       C  0.54587083  0.66066361  0.74453279     0.37300
C1762       C  0.56123023  0.59797419  0.90658334     0.37200
C1763       C  0.50948164  0.62106230  0.88476474     0.35700
C1764       C  0.59809927  0.63918212  0.76625615     0.35700
N1765       N  0.49202345  0.61850971  0.91007373    -0.39200
N1766       N  0.61561594  0.64438330  0.74196935    -0.39200
N1767       N  0.56388877  0.58560766  0.93971496    -0.38600
N1768       N  0.54280840  0.67437955  0.71284256    -0.38600
C1769       C  0.31890786  0.78521032  0.88956145    -0.05300
C1770       C  0.29719226  0.79244083  0.86007935    -0.02400
C1771       C  0.27610273  0.80998067  0.87356234     0.02600
C1772       C  0.27708729  0.82156480  0.91555776    -0.05300
C1773       C  0.29773865  0.81347236  0.94580583    -0.02400
C1774       C  0.31831249  0.79509432  0.93324342     0.02600
C1775       C  0.29698814  0.78336164  0.81494010     0.37300
C1776       C  0.29842403  0.82493729  0.98948932     0.37200
C1777       C  0.33878710  0.78655123  0.96574763     0.35700
C1778       C  0.25289571  0.81566246  0.84465527     0.35700
N1779       N  0.35500290  0.77997433  0.99198503    -0.39200
N1780       N  0.23408731  0.81981495  0.82210730    -0.39200
N1781       N  0.29899331  0.83409874  0.02428167    -0.38600
N1782       N  0.29646168  0.77646498  0.77872596    -0.38600
C1783       C  0.43210581  0.71732978  0.62495316    -0.05300
C1784       C  0.44826947  0.73443630  0.59686054    -0.02400
C1785       C  0.44244373  0.73686324  0.55111969     0.02600
C1786       C  0.42035824  0.72207987  0.53277456    -0.05300
C1787       C  0.40387435  0.70534223  0.56110003    -0.02400
C1788       C  0.40980414  0.70285390  0.60681573     0.02600
C1789       C  0.47164120  0.74882411  0.61486719     0.37300
C1790       C  0.38014330  0.69133290  0.54351502     0.37200
C1791       C  0.39232818  0.68597136  0.63532265     0.35700
C1792       C  0.45998424  0.75391363  0.52303554     0.35700
N1793       N  0.37840864  0.67237407  0.65788082    -0.39200
N1794       N  0.47422549  0.76769377  0.50133197    -0.39200
N1795       N  0.36116274  0.68020296  0.52964079    -0.38600
N1796       N  0.49034100  0.76015179  0.62927662    -0.38600
C1797       C  0.43774036  0.71819618  0.12520047    -0.05300
C1798       C  0.45332740  0.73508129  0.09591295    -0.02400
C1799       C  0.44684582  0.73661805  0.05035257     0.02600
C1800       C  0.42479337  0.72105959  0.03349597    -0.05300
C1801       C  0.40864567  0.70496611  0.06307570    -0.02400
C1802       C  0.41500989  0.70360171  0.10858618     0.02600
C1803       C  0.47627382  0.75075840  0.11254869     0.37300
C1804       C  0.38446546  0.69093141  0.04713836     0.37200
C1805       C  0.39692520  0.68850606  0.13855226     0.35700
C1806       C  0.46325172  0.75409854  0.02108999     0.35700
N1807       N  0.38228272  0.67656847  0.16218510    -0.39200
N1808       N  0.47642919  0.76839406  0.99843075    -0.39200
N1809       N  0.36507827  0.67983544  0.03470591    -0.38600
N1810       N  0.49453154  0.76333813  0.12572233    -0.38600
C1811       C  0.39305369  0.59415514  0.82146909    -0.05300
C1812       C  0.37146381  0.58917017  0.79138678    -0.02400
C1813       C  0.35954941  0.56261906  0.78953428     0.02600
C1814       C  0.36971306  0.54060563  0.81645939    -0.05300
C1815       C  0.39242185  0.54509669  0.84428349    -0.02400
C1816       C  0.40391436  0.57177527  0.84701456     0.02600
C1817       C  0.36048554  0.61158825  0.76381169     0.37300
C1818       C  0.40287503  0.52255895  0.87228734     0.37200
C1819       C  0.42688431  0.57611782  0.87636762     0.35700
C1820       C  0.33599087  0.55813570  0.76134315     0.35700
N1821       N  0.44519835  0.57928703  0.89997160    -0.39200
N1822       N  0.31711523  0.55452688  0.73906874    -0.39200
N1823       N  0.41113682  0.50458311  0.89465975    -0.38600
N1824       N  0.35159818  0.62927094  0.74150854    -0.38600
C1825       C  0.46841030  0.89956703  0.34460308    -0.05300
C1826       C  0.48743419  0.87837399  0.33756912    -0.02400
C1827       C  0.47826416  0.85142771  0.32985528     0.02600
C1828       C  0.45006597  0.84583390  0.32734138    -0.05300
C1829       C  0.43105966  0.86723061  0.33053249    -0.02400
C1830       C  0.44011537  0.89411261  0.33902899     0.02600
C1831       C  0.51644459  0.88433770  0.33711649     0.37300
C1832       C  0.40211392  0.86134729  0.32576995     0.37200
C1833       C  0.41990603  0.91559617  0.34299763     0.35700
C1834       C  0.49783359  0.82915822  0.32699215     0.35700
N1835       N  0.40307682  0.93213923  0.34511803    -0.39200
N1836       N  0.51346694  0.81141114  0.32513107    -0.39200
N1837       N  0.37909389  0.85653852  0.32192238    -0.38600
N1838       N  0.53960774  0.88893582  0.33608311    -0.38600
C1839       C  0.32738883  0.94938580  0.43571948    -0.05300
C1840       C  0.34919894  0.93308551  0.45200541    -0.02400
C1841       C  0.37621903  0.94210632  0.44540425     0.02600
C1842       C  0.38141504  0.96756850  0.42282912    -0.05300
C1843       C  0.35965773  0.98319913  0.40462310    -0.02400
C1844       C  0.33262008  0.97412346  0.41106891     0.02600
C1845       C  0.34376128  0.90694918  0.47517112     0.37300
C1846       C  0.36506156  0.00919865  0.38101991     0.37200
C1847       C  0.31018946  0.99089502  0.39400786     0.35700
C1848       C  0.39873659  0.92496784  0.46108103     0.35700
N1849       N  0.29242181  0.00443085  0.38040018    -0.39200
N1850       N  0.41668797  0.91117432  0.47322153    -0.39200
N1851       N  0.36945554  0.02992488  0.36223824    -0.38600
N1852       N  0.33928299  0.88611204  0.49356487    -0.38600
C1853       C  0.44770023  0.84471013  0.82556265    -0.05300
C1854       C  0.42861548  0.86496825  0.83607044    -0.02400
C1855       C  0.43750427  0.89163497  0.84634418     0.02600
C1856       C  0.46570867  0.89815885  0.84620302    -0.05300
C1857       C  0.48453975  0.87851356  0.83149978    -0.02400
C1858       C  0.47552744  0.85183926  0.82105862     0.02600
C1859       C  0.39972162  0.85824662  0.83604639     0.37300
C1860       C  0.51312642  0.88573788  0.82648447     0.37200
C1861       C  0.49507187  0.83152962  0.80713398     0.35700
C1862       C  0.41738812  0.91174897  0.85853816     0.35700
N1863       N  0.51078296  0.81552941  0.79579039    -0.39200
N1864       N  0.40067601  0.92730533  0.86754939    -0.39200
N1865       N  0.53595384  0.89121094  0.82198300    -0.38600
N1866       N  0.37672916  0.85276904  0.83565670    -0.38600
C1867       C  0.38098418  0.96968493  0.93789062    -0.05300
C1868       C  0.37549294  0.94499314  0.96251703    -0.02400
C1869       C  0.34839332  0.93609017  0.96883564     0.02600
C1870       C  0.32671201  0.95183915  0.95078074    -0.05300
C1871       C  0.33218590  0.97625621  0.92540370    -0.02400
C1872       C  0.35932764  0.98507597  0.91877380     0.02600
C1873       C  0.39773428  0.92802092  0.97967301     0.37300
C1874       C  0.30992260  0.99270468  0.90699528     0.37200
C1875       C  0.36501262  0.01030228  0.89318575     0.35700
C1876       C  0.34274469  0.91030618  0.99286313     0.35700
N1877       N  0.36974819  0.03034326  0.87273081    -0.39200
N1878       N  0.33807347  0.88970713  0.01180863    -0.39200
N1879       N  0.29234469  0.00607031  0.89228123    -0.38600
N1880       N  0.41524939  0.91405937  0.99302246    -0.38600
C1881       C  0.49683058  0.01550695  0.63027393    -0.05300
C1882       C  0.49543175  0.98922452  0.65195904    -0.02400
C1883       C  0.49627914  0.98708976  0.69831323     0.02600
C1884       C  0.49830625  0.01117008  0.72278396    -0.05300
C1885       C  0.49939419  0.03743237  0.70121247    -0.02400
C1886       C  0.49882940  0.03959020  0.65489760     0.02600
C1887       C  0.49410176  0.96431791  0.62671585     0.37300
C1888       C  0.50021449  0.06232289  0.72655762     0.37200
C1889       C  0.49956793  0.06662669  0.63266804     0.35700
C1890       C  0.49599181  0.96016411  0.72094134     0.35700
N1891       N  0.50018292  0.08819222  0.61503986    -0.39200
N1892       N  0.49585994  0.93883007  0.73934464    -0.39200
N1893       N  0.50066959  0.08236805  0.74625224    -0.38600
N1894       N  0.49305091  0.94437412  0.60680755    -0.38600
C1895       C  0.50756969  0.01149592  0.22268152    -0.05300
C1896       C  0.50497591  0.98757420  0.19797060    -0.02400
C1897       C  0.50468346  0.98997252  0.15174804     0.02600
C1898       C  0.50676182  0.01634208  0.13058199    -0.05300
C1899       C  0.51038183  0.04014596  0.15530449    -0.02400
C1900       C  0.51072232  0.03773408  0.20149860     0.02600
C1901       C  0.50340306  0.96053073  0.22004803     0.37300
C1902       C  0.51292931  0.06716297  0.13336074     0.37200
C1903       C  0.51332264  0.06243453  0.22706178     0.35700
C1904       C  0.50319320  0.96525165  0.12598545     0.35700
N1905       N  0.51537077  0.08231115  0.24695188    -0.39200
N1906       N  0.50213649  0.94557885  0.10541520    -0.39200
N1907       N  0.51507884  0.08868524  0.11592810    -0.38600
N1908       N  0.50226311  0.93894854  0.23755213    -0.38600
C1909       C  0.47653226  0.37806470  0.35104741    -0.05300
C1910       C  0.45571835  0.37160463  0.32071813    -0.02400
C1911       C  0.43062992  0.38592298  0.32110238     0.02600
C1912       C  0.42577734  0.40586436  0.35333870    -0.05300
C1913       C  0.44722533  0.41321003  0.38209716    -0.02400
C1914       C  0.47248214  0.39947750  0.38075573     0.02600
C1915       C  0.45926333  0.34878694  0.29153879     0.37300
C1916       C  0.44338547  0.43490863  0.41328907     0.37200
C1917       C  0.49403176  0.40652532  0.41154177     0.35700
C1918       C  0.40947237  0.37899825  0.28962077     0.35700
N1919       N  0.51115903  0.41206609  0.43622153    -0.39200
N1920       N  0.39292721  0.37346255  0.26392682    -0.39200
N1921       N  0.44052690  0.45221309  0.43823029    -0.38600
N1922       N  0.46176034  0.33038858  0.26854527    -0.38600
C1923       C  0.53832974  0.13444857  0.47299702    -0.05300
C1924       C  0.52128149  0.15729570  0.46281481    -0.02400
C1925       C  0.53227442  0.18169235  0.44383966     0.02600
C1926       C  0.56072922  0.18447654  0.43872593    -0.05300
C1927       C  0.57810071  0.16351962  0.45622005    -0.02400
C1928       C  0.56691491  0.13841383  0.47315977     0.02600
C1929       C  0.49234459  0.15577342  0.47255551     0.37300
C1930       C  0.60742590  0.16758277  0.45606170     0.37200
C1931       C  0.58479334  0.11697972  0.49097024     0.35700
C1932       C  0.51415294  0.20408255  0.43020746     0.35700
N1933       N  0.59910389  0.10014433  0.50601051    -0.39200
N1934       N  0.49953005  0.22174276  0.41921285    -0.39200
N1935       N  0.63082521  0.17080948  0.45623142    -0.38600
N1936       N  0.46935197  0.15489176  0.48086958    -0.38600
C1937       C  0.60448211  0.43237642  0.35842905    -0.05300
C1938       C  0.59718926  0.45470146  0.38446015    -0.02400
C1939       C  0.60796624  0.48110972  0.37475090     0.02600
C1940       C  0.62498270  0.48565435  0.33769912    -0.05300
C1941       C  0.62940551  0.46424799  0.30847599    -0.02400
C1942       C  0.61979390  0.43744091  0.31929362     0.02600
C1943       C  0.57886084  0.45060743  0.42152601     0.37300
C1944       C  0.64560516  0.46933791  0.26907427     0.37200
C1945       C  0.62772650  0.41490650  0.29182958     0.35700
C1946       C  0.60353134  0.50311465  0.40523298     0.35700
N1947       N  0.63438890  0.39721054  0.26963453    -0.39200
N1948       N  0.60025268  0.52041467  0.43003535    -0.39200
N1949       N  0.65831599  0.47319943  0.23738002    -0.38600
N1950       N  0.56412903  0.44772360  0.45102176    -0.38600
C1951       C  0.47810891  0.37551651  0.85263355    -0.05300
C1952       C  0.45899336  0.37147506  0.81858406    -0.02400
C1953       C  0.43372670  0.38534993  0.81886288     0.02600
C1954       C  0.42717992  0.40246381  0.85438586    -0.05300
C1955       C  0.44733346  0.40797441  0.88655457    -0.02400
C1956       C  0.47272055  0.39463929  0.88551171     0.02600
C1957       C  0.46464582  0.35165963  0.78500936     0.37300
C1958       C  0.44212947  0.42737737  0.92095235     0.37200
C1959       C  0.49300085  0.39990252  0.91942158     0.35700
C1960       C  0.41419484  0.38078111  0.78364797     0.35700
N1961       N  0.50894894  0.40431336  0.94666495    -0.39200
N1962       N  0.39895178  0.37713009  0.75505861    -0.39200
N1963       N  0.43838700  0.44279805  0.94859367    -0.38600
N1964       N  0.46912885  0.33569952  0.75845683    -0.38600
C1965       C  0.57400961  0.17830179  0.92565953    -0.05300
C1966       C  0.55752765  0.16342286  0.89628825    -0.02400
C1967       C  0.54909849  0.13646317  0.90775922     0.02600
C1968       C  0.55489963  0.12444298  0.95058558    -0.05300
C1969       C  0.57338181  0.13811210  0.97822110    -0.02400
C1970       C  0.58383581  0.16435065  0.96476313     0.02600
C1971       C  0.54913300  0.17516311  0.85353803     0.37300
C1972       C  0.58162913  0.12555921  0.02037666     0.37200
C1973       C  0.60644332  0.17579737  0.98923596     0.35700
C1974       C  0.53514064  0.12091239  0.87386994     0.35700
N1975       N  0.62508032  0.18434247  0.00808417    -0.39200
N1976       N  0.52376164  0.10851137  0.84739997    -0.39200
N1977       N  0.58836054  0.11574501  0.05409827    -0.38600
N1978       N  0.54234814  0.18359740  0.81897572    -0.38600
C1979       C  0.58714742  0.31077364  0.60103740    -0.05300
C1980       C  0.60203570  0.32681710  0.63080927    -0.02400
C1981       C  0.59802317  0.32310604  0.67682364     0.02600
C1982       C  0.57782871  0.30462411  0.69376686    -0.05300
C1983       C  0.56272594  0.28874977  0.66395947    -0.02400
C1984       C  0.56739445  0.29175839  0.61792023     0.02600
C1985       C  0.62208316  0.34664106  0.61438092     0.37300
C1986       C  0.54216998  0.26952233  0.68043141     0.37200
C1987       C  0.55108877  0.27586688  0.58767614     0.35700
C1988       C  0.61637416  0.33665904  0.70696736     0.35700
N1989       N  0.53812614  0.26323028  0.56344198    -0.39200
N1990       N  0.63135055  0.34685209  0.73120653    -0.39200
N1991       N  0.52577395  0.25406018  0.69328280    -0.38600
N1992       N  0.63798477  0.36268020  0.60168402    -0.38600
C1993       C  0.57062902  0.30195379  0.19453270    -0.05300
C1994       C  0.55361356  0.31832842  0.16634375    -0.02400
C1995       C  0.55954952  0.32169726  0.12081769     0.02600
C1996       C  0.58323603  0.30970101  0.10328782    -0.05300
C1997       C  0.60091117  0.29451707  0.13194145    -0.02400
C1998       C  0.59429162  0.28996873  0.17690346     0.02600
C1999       C  0.52979541  0.33163060  0.18409945     0.37300
C2000       C  0.62693926  0.28513691  0.11576855     0.37200
C2001       C  0.61274431  0.27402173  0.20537277     0.35700
C2002       C  0.54075154  0.33697374  0.09212294     0.35700
N2003       N  0.62748444  0.26117318  0.22782469    -0.39200
N2004       N  0.52538798  0.34919066  0.06991620    -0.39200
N2005       N  0.64790832  0.27815225  0.10302596    -0.38600
N2006       N  0.51090247  0.34243352  0.19820397    -0.38600
C2007       C  0.60681334  0.43070168  0.86237172    -0.05300
C2008       C  0.62434675  0.43513118  0.82559475    -0.02400
C2009       C  0.63311471  0.46193037  0.81341338     0.02600
C2010       C  0.62542295  0.48417952  0.83875702    -0.05300
C2011       C  0.60575734  0.48044263  0.87220116    -0.02400
C2012       C  0.59618065  0.45372679  0.88372876     0.02600
C2013       C  0.63489423  0.41226991  0.80145771     0.37300
C2014       C  0.59621317  0.50411807  0.89566585     0.37200
C2015       C  0.57506003  0.45012307  0.91670845     0.35700
C2016       C  0.65160675  0.46662169  0.77660385     0.35700
N2017       N  0.55797145  0.44751546  0.94269411    -0.39200
N2018       N  0.66620796  0.47064664  0.74719798    -0.39200
N2019       N  0.58850620  0.52305316  0.91415672    -0.38600
N2020       N  0.64375738  0.39458302  0.78138759    -0.38600
C2021       C  0.87594627  0.97714048  0.50649126    -0.05300
C2022       C  0.89478293  0.97295576  0.47237483    -0.02400
C2023       C  0.90564950  0.94649943  0.46604386     0.02600
C2024       C  0.89771071  0.92396809  0.49390717    -0.05300
C2025       C  0.88042566  0.92879210  0.53036179    -0.02400
C2026       C  0.86962001  0.95531801  0.53646366     0.02600
C2027       C  0.90226701  0.99584192  0.44273052     0.37300
C2028       C  0.87254419  0.90635575  0.56066222     0.37200
C2029       C  0.85095607  0.95999389  0.57241672     0.35700
C2030       C  0.92512102  0.94276355  0.43098501     0.35700
N2031       N  0.83613958  0.96383416  0.60112974    -0.39200
N2032       N  0.94061905  0.94040025  0.40275152    -0.39200
N2033       N  0.86624340  0.88870047  0.58525015    -0.38600
N2034       N  0.90834505  0.01403466  0.41904583    -0.38600
C2035       C  0.62353202  0.05039478  0.43791328    -0.05300
C2036       C  0.64106004  0.03140737  0.46014350    -0.02400
C2037       C  0.66841003  0.03867109  0.46910446     0.02600
C2038       C  0.67819800  0.06536079  0.45716394    -0.05300
C2039       C  0.66077735  0.08402189  0.43355097    -0.02400
C2040       C  0.63377359  0.07627863  0.42307378     0.02600
C2041       C  0.63120906  0.00386991  0.47194551     0.37300
C2042       C  0.67043679  0.11145065  0.42054955     0.37200
C2043       C  0.61647735  0.09506750  0.39727632     0.35700
C2044       C  0.68685062  0.01801116  0.48790791     0.35700
N2045       N  0.60286997  0.11006026  0.37637090    -0.39200
N2046       N  0.70149713  0.00127217  0.50229809    -0.39200
N2047       N  0.67811806  0.13331435  0.41014602    -0.38600
N2048       N  0.62335997  0.98185642  0.48097806    -0.38600
C2049       C  0.72643225  0.18816849  0.44055804    -0.05300
C2050       C  0.72065651  0.20057917  0.39876442    -0.02400
C2051       C  0.69992032  0.22059448  0.39383630     0.02600
C2052       C  0.68678565  0.23092794  0.43150333    -0.05300
C2053       C  0.69369225  0.21942210  0.47375070    -0.02400
C2054       C  0.71229848  0.19727825  0.47793015     0.02600
C2055       C  0.73702157  0.19383974  0.36097545     0.37300
C2056       C  0.68223822  0.23067712  0.51333499     0.37200
C2057       C  0.71589290  0.18315504  0.52062006     0.35700
C2058       C  0.69115329  0.22889923  0.34950034     0.35700
N2059       N  0.71831567  0.17181323  0.55468589    -0.39200
N2060       N  0.68422582  0.23465162  0.31375241    -0.39200
N2061       N  0.67328453  0.23979014  0.54493193    -0.38600
N2062       N  0.75049247  0.18904422  0.33102463    -0.38600
C2063       C  0.92798939  0.11246973  0.49126626    -0.05300
C2064       C  0.93558122  0.12871480  0.52768522    -0.02400
C2065       C  0.96244649  0.13926675  0.53144528     0.02600
C2066       C  0.98190141  0.13378727  0.49907216    -0.05300
C2067       C  0.97510952  0.11576083  0.46497498    -0.02400
C2068       C  0.94845242  0.10499889  0.46127394     0.02600
C2069       C  0.91576239  0.13586884  0.56050180     0.37300
C2070       C  0.99540739  0.10895472  0.43249504     0.37200
C2071       C  0.94246446  0.08580937  0.42677839     0.35700
C2072       C  0.96979834  0.15716287  0.56715213     0.35700
N2073       N  0.93833863  0.07039339  0.39915571    -0.39200
N2074       N  0.97601581  0.17141931  0.59544985    -0.39200
N2075       N  0.01124892  0.10338671  0.40614541    -0.38600
N2076       N  0.90056874  0.14189889  0.58752035    -0.38600
C2077       C  0.88970196  0.92080770  0.01635874    -0.05300
C2078       C  0.86183273  0.92173106  0.02738527    -0.02400
C2079       C  0.84926694  0.94718374  0.03472210     0.02600
C2080       C  0.86421950  0.97199832  0.02927388    -0.05300
C2081       C  0.89267403  0.97092274  0.02267042    -0.02400
C2082       C  0.90549528  0.94521995  0.01697418     0.02600
C2083       C  0.84575613  0.89659786  0.03011016     0.37300
C2084       C  0.90833359  0.99631495  0.01830541     0.37200
C2085       C  0.93470677  0.94405431  0.01048671     0.35700
C2086       C  0.82060038  0.94798827  0.04638952     0.35700
N2087       N  0.95809973  0.94341095  0.00588303    -0.39200
N2088       N  0.79779453  0.94855954  0.05589779    -0.39200
N2089       N  0.92066778  0.01666929  0.01473938    -0.38600
N2090       N  0.83245358  0.87686451  0.03245141    -0.38600
C2091       C  0.67810818  0.06483029  0.95124846    -0.05300
C2092       C  0.66045714  0.08276893  0.92676728    -0.02400
C2093       C  0.63389069  0.07401550  0.91552108     0.02600
C2094       C  0.62495784  0.04721566  0.92803723    -0.05300
C2095       C  0.64291859  0.02894364  0.95084790    -0.02400
C2096       C  0.66923154  0.03779314  0.96301050     0.02600
C2097       C  0.66929736  0.11055230  0.91418449     0.37300
C2098       C  0.63436436  0.00074317  0.96111293     0.37200
C2099       C  0.68732421  0.01867708  0.98659718     0.35700
C2100       C  0.61554870  0.09283476  0.89200869     0.35700
N2101       N  0.70156930  0.00329354  0.00548232    -0.39200
N2102       N  0.60114243  0.10790863  0.87285800    -0.39200
N2103       N  0.62760090  0.97820505  0.96890025    -0.38600
N2104       N  0.67630779  0.13268501  0.90400304    -0.38600
C2105       C  0.68473966  0.22738371  0.93501736    -0.05300
C2106       C  0.69463341  0.21689309  0.97619139    -0.02400
C2107       C  0.71456653  0.19590911  0.97798750     0.02600
C2108       C  0.72618613  0.18622141  0.93866586    -0.05300
C2109       C  0.71583629  0.19617311  0.89748600    -0.02400
C2110       C  0.69467858  0.21589792  0.89573311     0.02600
C2111       C  0.68445299  0.22751082  0.01707879     0.37300
C2112       C  0.72687731  0.18624298  0.85662452     0.37200
C2113       C  0.68197900  0.22288090  0.85336401     0.35700
C2114       C  0.72166829  0.18303830  0.02053285     0.35700
N2115       N  0.67174091  0.22800392  0.81952347    -0.39200
N2116       N  0.72689443  0.17260457  0.05448642    -0.39200
N2117       N  0.73555606  0.17836260  0.82393563    -0.38600
N2118       N  0.67648016  0.23564135  0.05003919    -0.38600
C2119       C  0.80523840  0.08413656  0.76876259    -0.05300
C2120       C  0.78708526  0.06421165  0.75168936    -0.02400
C2121       C  0.78746595  0.05803665  0.70633671     0.02600
C2122       C  0.80576210  0.07189569  0.67721325    -0.05300
C2123       C  0.82328393  0.09243454  0.69421570    -0.02400
C2124       C  0.82311057  0.09836660  0.73956448     0.02600
C2125       C  0.76795370  0.04974450  0.78064034     0.37300
C2126       C  0.84021108  0.10918426  0.66473557     0.37200
C2127       C  0.84014688  0.12054142  0.75551403     0.35700
C2128       C  0.76904972  0.03717920  0.68989599     0.35700
N2129       N  0.85361486  0.13841844  0.76779188    -0.39200
N2130       N  0.75422718  0.02058290  0.67704782    -0.39200
N2131       N  0.85360066  0.12294010  0.64162247    -0.38600
N2132       N  0.75238320  0.03823953  0.80321029    -0.38600
C2133       C  0.79836162  0.07425249  0.17792541    -0.05300
C2134       C  0.81418931  0.05739651  0.20706343    -0.02400
C2135       C  0.81617255  0.06343559  0.25233603     0.02600
C2136       C  0.80206272  0.08622595  0.26911844    -0.05300
C2137       C  0.78600215  0.10285762  0.24002998    -0.02400
C2138       C  0.78426965  0.09706048  0.19473386     0.02600
C2139       C  0.82810862  0.03350678  0.19057956     0.37300
C2140       C  0.77230119  0.12693927  0.25611074     0.37200
C2141       C  0.76920508  0.11579913  0.16523669     0.35700
C2142       C  0.83264623  0.04591132  0.28156222     0.35700
N2143       N  0.75724149  0.13119505  0.14244413    -0.39200
N2144       N  0.84612807  0.03191643  0.30436041    -0.39200
N2145       N  0.76132553  0.14628314  0.26835384    -0.38600
N2146       N  0.83916109  0.01443676  0.17739330    -0.38600
C2147       C  0.97957963  0.13175412  0.00354743    -0.05300
C2148       C  0.95890464  0.13877353  0.03310227    -0.02400
C2149       C  0.93304711  0.12587789  0.03091127     0.02600
C2150       C  0.92730447  0.10677966  0.99752180    -0.05300
C2151       C  0.94878773  0.09824784  0.97030312    -0.02400
C2152       C  0.97483281  0.11058891  0.97352387     0.02600
C2153       C  0.96368977  0.16079711  0.06355303     0.37300
C2154       C  0.94421928  0.07669039  0.93898011     0.37200
C2155       C  0.99648300  0.10235734  0.94446939     0.35700
C2156       C  0.91219391  0.13343707  0.06190138     0.35700
N2157       N  0.01364372  0.09565524  0.92116818    -0.39200
N2158       N  0.89601680  0.13952636  0.08740069    -0.39200
N2159       N  0.94086142  0.05941606  0.91403158    -0.38600
N2160       N  0.96756348  0.17856251  0.08742556    -0.38600
loop_ 
_geom_bond_atom_site_label_1 
_geom_bond_atom_site_label_2 
_geom_bond_distance 
_geom_bond_site_symmetry_2 
_ccdc_geom_bond_type 
Zr1           O2   2.443       .  S
Zr1           O3   2.455       .  S
Zr1           O4   2.458       .  S
Zr1           O7   2.433       .  S
Zr1           O9   2.382       .  S
Zr1          O10   2.391   1_554  S
Zr1          O11   2.414       .  S
Zr1          O12   2.407   1_554  S
O2           H58   0.990       .  S
O2           H66   0.991       .  S
O3           C23   1.286   1_545  A
O4           C25   1.288       .  A
O5          Zr15   2.455       .  S
O5           C24   1.290       .  A
O6          Zr14   2.430       .  S
O6           C25   1.284       .  A
O7           C24   1.283   1_554  A
O8          Zr16   2.381   1_565  S
O8           C23   1.275   1_556  A
O9          Zr14   2.400       .  S
O9          Zr16   2.386   1_554  S
O10         Zr15   2.400       .  S
O10         Zr16   2.383       .  S
O10          H45   0.967       .  S
O11         Zr14   2.408       .  S
O11         Zr31   2.390   1_554  S
O11          H48   0.965       .  S
O12         Zr15   2.383       .  S
O12         Zr31   2.385       .  S
Zr13         O38   2.442       .  S
Zr13         O32   2.447       .  S
Zr13         O40   2.442       .  S
Zr13         O28   2.426       .  S
Zr13         O19   2.393       .  S
Zr13         O20   2.413       .  S
Zr13         O21   2.372       .  S
Zr13         O22   2.389       .  S
Zr14         O33   2.434       .  S
Zr14         O26   2.434       .  S
Zr14         O27   2.449   1_554  S
Zr14         O20   2.401   1_554  S
Zr14         O21   2.391   1_554  S
Zr15         O17   2.435       .  S
Zr15         O39   2.438       .  S
Zr15         O41   2.446       .  S
Zr15         O19   2.384       .  S
Zr15         O22   2.406       .  S
Zr16         O42   2.435       .  S
Zr16         O43   2.436       .  S
Zr16         O18   2.436   1_545  S
Zr16         O19   2.371       .  S
Zr16         O20   2.375       .  S
O17          H54   0.990       .  S
O18          H49   0.990       .  S
O18          H63   0.990   1_556  S
O20          H46   0.965       .  S
O21         Zr31   2.379       .  S
O22         Zr31   2.379       .  S
O22          H47   0.967       .  S
C23        C2080   1.479       .  S
C24        C2150   1.495       .  S
C25        C2133   1.490       .  S
O26          H62   0.990       .  S
O27          C29   1.288       .  A
O28          C29   1.282       .  A
C29        C2091   1.483       .  S
O30         Zr31   2.435   1_554  S
O30          H59   0.990       .  S
Zr31         O34   2.436   1_556  S
Zr31         O35   2.437       .  S
Zr31         O36   2.411       .  S
O32          C37   1.285       .  A
O33          H50   0.990       .  S
O33          H65   0.990       .  S
O34          H51   0.990       .  S
O35          H55   0.990       .  S
O35          H64   0.990       .  S
O36          C37   1.280       .  A
C37        C2108   1.495       .  S
O38          H57   0.990       .  S
O38          H61   0.990       .  S
O39          H53   0.990       .  S
O39          H60   0.990       .  S
O40          C44   1.286       .  A
O41          C44   1.289       .  A
O42          H52   0.990       .  S
O43          H56   0.990       .  S
C44        C2119   1.495       .  S
Zr67         O68   2.444       .  S
Zr67         O69   2.466       .  S
Zr67         O70   2.457       .  S
Zr67         O73   2.436       .  S
Zr67         O75   2.389       .  S
Zr67         O76   2.386       .  S
Zr67         O77   2.421       .  S
Zr67         O78   2.410       .  S
O68         H124   0.990       .  S
O68         H132   0.989       .  S
O69          C89   1.286       .  A
O70          C91   1.288       .  A
O71         Zr81   2.462       .  S
O71          C90   1.291       .  A
O72         Zr80   2.443       .  S
O72          C91   1.287       .  A
O73          C90   1.284       .  A
O74         Zr82   2.381   1_565  S
O74          C89   1.272   1_565  A
O75         Zr80   2.409       .  S
O75         Zr82   2.383       .  S
O76         Zr81   2.397       .  S
O76         Zr82   2.389       .  S
O76         H111   0.967       .  S
O77         Zr80   2.409       .  S
O77         Zr97   2.385       .  S
O77         H114   0.963       .  S
O78         Zr81   2.381       .  S
O78         Zr97   2.393       .  S
Zr79        O104   2.444       .  S
Zr79         O98   2.451       .  S
Zr79        O106   2.449       .  S
Zr79         O94   2.420       .  S
Zr79         O85   2.390       .  S
Zr79         O86   2.421       .  S
Zr79         O87   2.377       .  S
Zr79         O88   2.385       .  S
Zr80         O99   2.435       .  S
Zr80         O92   2.433       .  S
Zr80         O93   2.463       .  S
Zr80         O86   2.401       .  S
Zr80         O87   2.393       .  S
Zr81         O83   2.436       .  S
Zr81        O105   2.433       .  S
Zr81        O107   2.442       .  S
Zr81         O85   2.383       .  S
Zr81         O88   2.402       .  S
Zr82        O108   2.432       .  S
Zr82        O109   2.437       .  S
Zr82         O84   2.437   1_545  S
Zr82         O85   2.376       .  S
Zr82         O86   2.377       .  S
O83         H120   0.990       .  S
O84         H115   0.990       .  S
O84         H129   0.990       .  S
O86         H112   0.963       .  S
O87         Zr97   2.378       .  S
O88         Zr97   2.382       .  S
O88         H113   0.966       .  S
C89        C2021   1.474   1_545  S
C90        C2063   1.501       .  S
C91        C2122   1.498       .  S
O92         H128   0.988       .  S
O93          C95   1.291       .  A
O94          C95   1.281       .  A
C95        C2038   1.489       .  S
O96         Zr97   2.433       .  S
O96         H125   0.989       .  S
Zr97        O100   2.436       .  S
Zr97        O101   2.437       .  S
Zr97        O102   2.411       .  S
O98         C103   1.286       .  A
O99         H116   0.990       .  S
O99         H131   0.990       .  S
O100        H117   0.990       .  S
O101        H121   0.990       .  S
O101        H130   0.990       .  S
O102        C103   1.279       .  A
C103       C2049   1.492       .  S
O104        H123   0.990       .  S
O104        H127   0.990       .  S
O105        H119   0.990       .  S
O105        H126   0.989       .  S
O106        C110   1.287       .  A
O107        C110   1.287       .  A
O108        H118   0.990   1_545  S
O109        H122   0.990       .  S
C110       C2136   1.491       .  S
Zr133       O134   2.445       .  S
Zr133       O135   2.451       .  S
Zr133       O136   2.439       .  S
Zr133       O139   2.391       .  S
Zr133       O141   2.373       .  S
Zr133       O142   2.383       .  S
Zr133       O143   2.410       .  S
Zr133       O144   2.411       .  S
O134        H190   0.990       .  S
O134        H198   0.990       .  S
O135        C155   1.284       .  A
O136        C157   1.284       .  A
O137       Zr147   2.467       .  S
O137        C156   1.291       .  A
O138       Zr146   2.462       .  S
O138        C157   1.289       .  A
O139        C156   1.275       .  A
O140       Zr148   2.391       .  S
O140        C155   1.275       .  A
O141       Zr146   2.402       .  S
O141       Zr148   2.387       .  S
O142       Zr147   2.391       .  S
O142       Zr148   2.385       .  S
O142        H177   0.964       .  S
O143       Zr146   2.405       .  S
O143       Zr163   2.394       .  S
O143        H180   0.962       .  S
O144       Zr147   2.382       .  S
O144       Zr163   2.391       .  S
Zr145       O170   2.443   1_556  S
Zr145       O164   2.453       .  S
Zr145       O172   2.442   1_556  S
Zr145       O160   2.422       .  S
Zr145       O151   2.395       .  S
Zr145       O152   2.416       .  S
Zr145       O153   2.376       .  S
Zr145       O154   2.388       .  S
Zr146       O165   2.435       .  S
Zr146       O158   2.434       .  S
Zr146       O159   2.458       .  S
Zr146       O152   2.407       .  S
Zr146       O153   2.395       .  S
Zr147       O149   2.436       .  S
Zr147       O171   2.436       .  S
Zr147       O173   2.446   1_556  S
Zr147       O151   2.391       .  S
Zr147       O154   2.407       .  S
Zr148       O174   2.434       .  S
Zr148       O175   2.435       .  S
Zr148       O150   2.436       .  S
Zr148       O151   2.379       .  S
Zr148       O152   2.380       .  S
O149        H186   0.990       .  S
O150        H181   0.990       .  S
O150        H195   0.990       .  S
O152        H178   0.964       .  S
O153       Zr163   2.372       .  S
O154       Zr163   2.380       .  S
O154        H179   0.968       .  S
C155       C1951   1.471       .  S
C156       C2007   1.483       .  S
C157       C1982   1.498       .  S
O158        H194   0.990       .  S
O159        C161   1.290       .  A
O160        C161   1.281       .  A
C161       C1965   1.502       .  S
O162       Zr163   2.434       .  S
O162        H191   0.990       .  S
Zr163       O166   2.436       .  S
Zr163       O167   2.442       .  S
Zr163       O168   2.414       .  S
O164        C169   1.287       .  A
O165        H182   0.990       .  S
O165        H197   0.990       .  S
O166        H183   0.990       .  S
O167        H187   0.990       .  S
O167        H196   0.990       .  S
O168        C169   1.280       .  A
C169       C2105   1.498       .  S
O170        H189   0.990       .  S
O170        H193   0.989       .  S
O171        H185   0.989   1_556  S
O171        H192   0.990   1_556  S
O172        C176   1.286       .  A
O173        C176   1.287       .  A
O174        H184   0.990       .  S
O175        H188   0.990   1_556  S
C176       C1996   1.492       .  S
Zr199       O200   2.445       .  S
Zr199       O201   2.459       .  S
Zr199       O202   2.433       .  S
Zr199       O205   2.394       .  S
Zr199       O207   2.372       .  S
Zr199       O208   2.382       .  S
Zr199       O209   2.410       .  S
Zr199       O210   2.411       .  S
O200        H256   0.990       .  S
O200        H264   0.990       .  S
O201        C221   1.285       .  A
O202        C223   1.282       .  A
O203       Zr213   2.456       .  S
O203        C222   1.291       .  A
O204       Zr212   2.453       .  S
O204        C223   1.289       .  A
O205        C222   1.276       .  A
O206       Zr214   2.398       .  S
O206        C221   1.275       .  A
O207       Zr212   2.408       .  S
O207       Zr214   2.384       .  S
O208       Zr213   2.403       .  S
O208       Zr214   2.373       .  S
O208        H243   0.966       .  S
O209       Zr212   2.411       .  S
O209       Zr229   2.389       .  S
O209        H246   0.965       .  S
O210       Zr213   2.392       .  S
O210       Zr229   2.386       .  S
Zr211       O236   2.444       .  S
Zr211       O230   2.449       .  S
Zr211       O238   2.427       .  S
Zr211       O226   2.409       .  S
Zr211       O217   2.399       .  S
Zr211       O218   2.413       .  S
Zr211       O219   2.369       .  S
Zr211       O220   2.381       .  S
Zr212       O231   2.437       .  S
Zr212       O224   2.435       .  S
Zr212       O225   2.462       .  S
Zr212       O218   2.404       .  S
Zr212       O219   2.397       .  S
Zr213       O215   2.436       .  S
Zr213       O237   2.437       .  S
Zr213       O239   2.465       .  S
Zr213       O217   2.384       .  S
Zr213       O220   2.406       .  S
Zr214       O240   2.435       .  S
Zr214       O241   2.435       .  S
Zr214       O216   2.439       .  S
Zr214       O217   2.386       .  S
Zr214       O218   2.387       .  S
O215        H252   0.990       .  S
O216        H247   0.990       .  S
O216        H261   0.990       .  S
O218        H244   0.962       .  S
O219       Zr229   2.385       .  S
O220       Zr229   2.382       .  S
O220        H245   0.966       .  S
C221       C1909   1.481       .  S
C222       C1937   1.481       .  S
C223       C1993   1.490       .  S
O224        H260   0.990       .  S
O225        C227   1.290       .  A
O226        C227   1.276       .  A
C227       C1926   1.476       .  S
O228       Zr229   2.437       .  S
O228        H257   0.990       .  S
Zr229       O232   2.434       .  S
Zr229       O233   2.438       .  S
Zr229       O234   2.414       .  S
O230        C235   1.286       .  A
O231        H248   0.990       .  S
O231        H263   0.990       .  S
O232        H249   0.990       .  S
O233        H253   0.990       .  S
O233        H262   0.990       .  S
O234        C235   1.280       .  A
C235       C2052   1.500       .  S
O236        H255   0.991       .  S
O236        H259   0.990       .  S
O237        H251   0.990       .  S
O237        H258   0.990       .  S
O238        C242   1.283       .  A
O239        C242   1.290       .  A
O240        H250   0.990       .  S
O241        H254   0.989       .  S
C242       C1979   1.495       .  S
Zr265       O266   2.439   1_565  S
Zr265       O267   2.413       .  S
Zr265       O268   2.425       .  S
Zr265       O271   2.439       .  S
Zr265       O273   2.386       .  S
Zr265       O274   2.380       .  S
Zr265       O275   2.406   1_565  S
Zr265       O276   2.398   1_565  S
O266        H322   0.990   1_545  S
O266        H330   0.990       .  S
O267        C287   1.280       .  A
O268        C289   1.283   1_565  A
O269       Zr279   2.409   1_565  S
O269        C288   1.280       .  A
O270       Zr278   2.404       .  S
O270        C289   1.279       .  A
O271        C288   1.287       .  A
O272       Zr280   2.436       .  S
O272        C287   1.285       .  A
O273       Zr278   2.393   1_565  S
O273       Zr280   2.369       .  S
O274       Zr279   2.387   1_565  S
O274       Zr280   2.367       .  S
O274        H309   0.967       .  S
O275       Zr278   2.421       .  S
O275       Zr295   2.391       .  S
O275        H312   0.965       .  S
O276       Zr279   2.389       .  S
O276       Zr295   2.370       .  S
Zr277       O302   2.439   1_556  S
Zr277       O296   2.441       .  S
Zr277       O304   2.397   1_556  S
Zr277       O292   2.397       .  S
Zr277       O283   2.398   1_545  S
Zr277       O284   2.403   1_545  S
Zr277       O285   2.376       .  S
Zr277       O286   2.402       .  S
Zr278       O297   2.436       .  S
Zr278       O290   2.434   1_545  S
Zr278       O291   2.458       .  S
Zr278       O284   2.392   1_545  S
Zr278       O285   2.367       .  S
Zr279       O281   2.436   1_556  S
Zr279       O303   2.432   1_546  S
Zr279       O305   2.393   1_556  S
Zr279       O283   2.390   1_545  S
Zr279       O286   2.393       .  S
Zr280       O306   2.434       .  S
Zr280       O307   2.435       .  S
Zr280       O282   2.433       .  S
Zr280       O283   2.395       .  S
Zr280       O284   2.396       .  S
O281        H318   0.990       .  S
O282        H313   0.990       .  S
O282        H327   0.989       .  S
O284        H310   0.965       .  S
O285       Zr295   2.377       .  S
O286       Zr295   2.365       .  S
O286        H311   0.967   1_556  S
C287       C1856   1.484       .  S
C288       C1867   1.476       .  S
C289       C1884   1.461       .  S
O290        H326   0.990       .  S
O291        C293   1.288       .  A
O292        C293   1.277       .  A
C293       C2094   1.477       .  S
O294       Zr295   2.442       .  S
O294        H323   0.990       .  S
Zr295       O298   2.443       .  S
Zr295       O299   2.433       .  S
Zr295       O300   2.381       .  S
O296        C301   1.279       .  A
O297        H314   0.990       .  S
O297        H329   0.989       .  S
O298        H315   0.991       .  S
O299        H319   0.990       .  S
O299        H328   0.990       .  S
O300        C301   1.267       .  A
C301       C1968   1.495       .  S
O302        H321   0.990   1_545  S
O302        H325   0.990       .  S
O303        H317   0.990       .  S
O303        H324   0.988       .  S
O304        C308   1.279       .  A
O305        C308   1.277       .  A
O306        H316   0.989   1_556  S
O307        H320   0.990   1_556  S
C308       C1898   1.456       .  S
Zr331       O332   2.439   1_565  S
Zr331       O333   2.398       .  S
Zr331       O334   2.421   1_565  S
Zr331       O337   2.434       .  S
Zr331       O339   2.385       .  S
Zr331       O340   2.379       .  S
Zr331       O341   2.393   1_565  S
Zr331       O342   2.390   1_565  S
O332        H388   0.990   1_545  S
O332        H396   0.990       .  S
O333        C353   1.277       .  A
O334        C355   1.283       .  A
O335       Zr345   2.410   1_565  S
O335        C354   1.279       .  A
O336       Zr344   2.388       .  S
O336        C355   1.277       .  A
O337        C354   1.285       .  A
O338       Zr346   2.448       .  S
O338        C353   1.288       .  A
O339       Zr344   2.397   1_565  S
O339       Zr346   2.369       .  S
O340       Zr345   2.384   1_565  S
O340       Zr346   2.360       .  S
O340        H375   0.965       .  S
O341       Zr344   2.408       .  S
O341       Zr361   2.379       .  S
O341        H378   0.966       .  S
O342       Zr345   2.386       .  S
O342       Zr361   2.379       .  S
Zr343       O368   2.443       .  S
Zr343       O362   2.456       .  S
Zr343       O370   2.421       .  S
Zr343       O358   2.424       .  S
Zr343       O349   2.405   1_545  S
Zr343       O350   2.405       .  S
Zr343       O351   2.369       .  S
Zr343       O352   2.387       .  S
Zr344       O363   2.434       .  S
Zr344       O356   2.434   1_545  S
Zr344       O357   2.442       .  S
Zr344       O350   2.385       .  S
Zr344       O351   2.375       .  S
Zr345       O347   2.434       .  S
Zr345       O369   2.437   1_545  S
Zr345       O371   2.395       .  S
Zr345       O349   2.393   1_545  S
Zr345       O352   2.390       .  S
Zr346       O372   2.436       .  S
Zr346       O373   2.435       .  S
Zr346       O348   2.437       .  S
Zr346       O349   2.398       .  S
Zr346       O350   2.400   1_565  S
O347        H384   0.990       .  S
O348        H379   0.990       .  S
O348        H393   0.990       .  S
O350        H376   0.965   1_545  S
O351       Zr361   2.386       .  S
O352       Zr361   2.377       .  S
O352        H377   0.966       .  S
C353       C1825   1.483       .  S
C354       C1842   1.473       .  S
C355       C1895   1.455       .  S
O356        H392   0.990   1_565  S
O357        C359   1.285       .  A
O358        C359   1.282       .  A
C359       C2035   1.482       .  S
O360       Zr361   2.438       .  S
O360        H389   0.990       .  S
Zr361       O364   2.435       .  S
Zr361       O365   2.437       .  S
Zr361       O366   2.383       .  S
O362        C367   1.287       .  A
O363        H380   0.990       .  S
O363        H395   0.990       .  S
O364        H381   0.990       .  S
O365        H385   0.990       .  S
O365        H394   0.990       .  S
O366        C367   1.277       .  A
C367       C1923   1.488       .  S
O368        H387   0.990       .  S
O368        H391   0.991       .  S
O369        H383   0.990       .  S
O369        H390   0.989       .  S
O370        C374   1.281       .  A
O371        C374   1.277       .  A
O372        H382   0.990       .  S
O373        H386   0.990       .  S
C374       C1881   1.465       .  S
Zr397       O398   2.443       .  S
Zr397       O399   2.504       .  S
Zr397       O400   2.479       .  S
Zr397       O403   2.435       .  S
Zr397       O405   2.381       .  S
Zr397       O406   2.384       .  S
Zr397       O407   2.424       .  S
Zr397       O408   2.415       .  S
O398        H454   0.990       .  S
O398        H462   0.990       .  S
O399        C419   1.296       .  A
O400        C421   1.291       .  A
O401       Zr411   2.458       .  S
O401        C420   1.290       .  A
O402       Zr410   2.409       .  S
O402        C421   1.280       .  A
O403        C420   1.284       .  A
O404       Zr412   2.368       .  S
O404        C419   1.271       .  A
O405       Zr410   2.403       .  S
O405       Zr412   2.388       .  S
O406       Zr411   2.379       .  S
O406       Zr412   2.386       .  S
O406        H441   0.966       .  S
O407       Zr410   2.401       .  S
O407       Zr427   2.396       .  S
O407        H444   0.963       .  S
O408       Zr411   2.387       .  S
O408       Zr427   2.400       .  S
Zr409       O434   2.442       .  S
Zr409       O428   2.429       .  S
Zr409       O436   2.442       .  S
Zr409       O424   2.454       .  S
Zr409       O415   2.391       .  S
Zr409       O416   2.404       .  S
Zr409       O417   2.375       .  S
Zr409       O418   2.393       .  S
Zr410       O429   2.437       .  S
Zr410       O422   2.434       .  S
Zr410       O423   2.412       .  S
Zr410       O416   2.397       .  S
Zr410       O417   2.400       .  S
Zr411       O413   2.435       .  S
Zr411       O435   2.436       .  S
Zr411       O437   2.436       .  S
Zr411       O415   2.392       .  S
Zr411       O418   2.398       .  S
Zr412       O438   2.436       .  S
Zr412       O439   2.435       .  S
Zr412       O414   2.437       .  S
Zr412       O415   2.373       .  S
Zr412       O416   2.372       .  S
O413        H450   0.990       .  S
O414        H445   0.990       .  S
O414        H459   0.990       .  S
O416        H442   0.965       .  S
O417       Zr427   2.378       .  S
O418       Zr427   2.372       .  S
O418        H443   0.966       .  S
C419       C1755   1.485       .  S
C420       C1811   1.493       .  S
C421       C1783   1.490       .  S
O422        H458   0.990       .  S
O423        C425   1.280       .  A
O424        C425   1.288       .  A
C425       C1853   1.474       .  S
O426       Zr427   2.432       .  S
O426        H455   0.989       .  S
Zr427       O430   2.434       .  S
Zr427       O431   2.439       .  S
Zr427       O432   2.437       .  S
O428        C433   1.282       .  A
O429        H446   0.990       .  S
O429        H461   0.990       .  S
O430        H447   0.990       .  S
O431        H451   0.990       .  S
O431        H460   0.990       .  S
O432        C433   1.284       .  A
C433       C1769   1.501       .  S
O434        H453   0.990       .  S
O434        H457   0.990       .  S
O435        H449   0.990       .  S
O435        H456   0.990       .  S
O436        C440   1.287       .  A
O437        C440   1.287       .  A
O438        H448   0.990       .  S
O439        H452   0.989       .  S
C440       C1800   1.490   1_556  S
Zr463       O464   2.444       .  S
Zr463       O465   2.484       .  S
Zr463       O466   2.464       .  S
Zr463       O469   2.431       .  S
Zr463       O471   2.380       .  S
Zr463       O472   2.385       .  S
Zr463       O473   2.424       .  S
Zr463       O474   2.419       .  S
O464        H520   0.991       .  S
O464        H528   0.990       .  S
O465        C485   1.291       .  A
O466        C487   1.288       .  A
O467       Zr477   2.444       .  S
O467        C486   1.287       .  A
O468       Zr476   2.413       .  S
O468        C487   1.280       .  A
O469        C486   1.283       .  A
O470       Zr478   2.369       .  S
O470        C485   1.271       .  A
O471       Zr476   2.405       .  S
O471       Zr478   2.388       .  S
O472       Zr477   2.390       .  S
O472       Zr478   2.384       .  S
O472        H507   0.963       .  S
O473       Zr476   2.397       .  S
O473       Zr493   2.392       .  S
O473        H510   0.962       .  S
O474       Zr477   2.383       .  S
O474       Zr493   2.403       .  S
Zr475       O500   2.441       .  S
Zr475       O494   2.428       .  S
Zr475       O502   2.461       .  S
Zr475       O490   2.437       .  S
Zr475       O481   2.390       .  S
Zr475       O482   2.407       .  S
Zr475       O483   2.380       .  S
Zr475       O484   2.390       .  S
Zr476       O495   2.443       .  S
Zr476       O488   2.435       .  S
Zr476       O489   2.411       .  S
Zr476       O482   2.398       .  S
Zr476       O483   2.396       .  S
Zr477       O479   2.435       .  S
Zr477       O501   2.436       .  S
Zr477       O503   2.422       .  S
Zr477       O481   2.395       .  S
Zr477       O484   2.396       .  S
Zr478       O504   2.434       .  S
Zr478       O505   2.437       .  S
Zr478       O480   2.439       .  S
Zr478       O481   2.378       .  S
Zr478       O482   2.365       .  S
O479        H516   0.990       .  S
O480        H511   0.990       .  S
O480        H525   0.990       .  S
O482        H508   0.964       .  S
O483       Zr493   2.376       .  S
O484       Zr493   2.380       .  S
O484        H509   0.967       .  S
C485       C1713   1.477       .  S
C486       C1741   1.492       .  S
C487       C1797   1.487       .  S
O488        H524   0.989       .  S
O489        C491   1.280       .  A
O490        C491   1.285       .  A
C491       C1828   1.465       .  S
O492       Zr493   2.433       .  S
O492        H521   0.989       .  S
Zr493       O496   2.434       .  S
Zr493       O497   2.438       .  S
Zr493       O498   2.435       .  S
O494        C499   1.283       .  A
O495        H512   0.990       .  S
O495        H527   0.990       .  S
O496        H513   0.990       .  S
O497        H517   0.991       .  S
O497        H526   0.989       .  S
O498        C499   1.283       .  A
C499       C1730   1.496       .  S
O500        H519   0.990       .  S
O500        H523   0.990       .  S
O501        H515   0.990       .  S
O501        H522   0.989       .  S
O502        C506   1.289       .  A
O503        C506   1.283       .  A
O504        H514   0.990       .  S
O505        H518   0.990       .  S
C506       C1786   1.493       .  S
Zr529       O530   2.445       .  S
Zr529       O531   2.450       .  S
Zr529       O532   2.419       .  S
Zr529       O535   2.406       .  S
Zr529       O537   2.378       .  S
Zr529       O538   2.380   1_554  S
Zr529       O539   2.416       .  S
Zr529       O540   2.405   1_554  S
O530        H586   0.990       .  S
O530        H594   0.990       .  S
O531        C551   1.282   1_564  A
O532        C553   1.279       .  A
O533       Zr543   2.465       .  S
O533        C552   1.291       .  A
O534       Zr542   2.441       .  S
O534        C553   1.285       .  A
O535        C552   1.278   1_554  A
O536       Zr544   2.383   1_545  S
O536        C551   1.273       .  A
O537       Zr542   2.406       .  S
O537       Zr544   2.386   1_554  S
O538       Zr543   2.396       .  S
O538       Zr544   2.384       .  S
O538        H573   0.965       .  S
O539       Zr542   2.400       .  S
O539       Zr559   2.395   1_554  S
O539        H576   0.966       .  S
O540       Zr543   2.383       .  S
O540       Zr559   2.396       .  S
Zr541       O566   2.445       .  S
Zr541       O560   2.430       .  S
Zr541       O568   2.410       .  S
Zr541       O556   2.436       .  S
Zr541       O547   2.398       .  S
Zr541       O548   2.405       .  S
Zr541       O549   2.375       .  S
Zr541       O550   2.388       .  S
Zr542       O561   2.437       .  S
Zr542       O554   2.434       .  S
Zr542       O555   2.439   1_554  S
Zr542       O548   2.403   1_554  S
Zr542       O549   2.399   1_554  S
Zr543       O545   2.437       .  S
Zr543       O567   2.437       .  S
Zr543       O569   2.448       .  S
Zr543       O547   2.395       .  S
Zr543       O550   2.403       .  S
Zr544       O570   2.436   1_565  S
Zr544       O571   2.436       .  S
Zr544       O546   2.437   1_565  S
Zr544       O547   2.375       .  S
Zr544       O548   2.370       .  S
O545        H582   0.990       .  S
O546        H577   0.990       .  S
O546        H591   0.990       .  S
O548        H574   0.963       .  S
O549       Zr559   2.382       .  S
O550       Zr559   2.375       .  S
O550        H575   0.966       .  S
C551       C1657   1.468       .  S
C552       C1699   1.487       .  S
C553       C1685   1.482       .  S
O554        H590   0.990       .  S
O555        C557   1.285       .  A
O556        C557   1.282       .  A
C557       C1870   1.475       .  S
O558       Zr559   2.438   1_554  S
O558        H587   0.990       .  S
Zr559       O562   2.434   1_556  S
Zr559       O563   2.441       .  S
Zr559       O564   2.418       .  S
O560        C565   1.281       .  A
O561        H578   0.990       .  S
O561        H593   0.990       .  S
O562        H579   0.989       .  S
O563        H583   0.990       .  S
O563        H592   0.990       .  S
O564        C565   1.280       .  A
C565       C1772   1.480       .  S
O566        H585   0.991       .  S
O566        H589   0.991       .  S
O567        H581   0.990       .  S
O567        H588   0.990       .  S
O568        C572   1.280       .  A
O569        C572   1.289       .  A
O570        H580   0.990       .  S
O571        H584   0.990       .  S
C572       C1671   1.479       .  S
Zr595       O596   2.446       .  S
Zr595       O597   2.451       .  S
Zr595       O598   2.423       .  S
Zr595       O601   2.406       .  S
Zr595       O603   2.379       .  S
Zr595       O604   2.376       .  S
Zr595       O605   2.414       .  S
Zr595       O606   2.404       .  S
O596        H652   0.990       .  S
O596        H660   0.990       .  S
O597        C617   1.284   1_565  A
O598        C619   1.280       .  A
O599       Zr609   2.465       .  S
O599        C618   1.291       .  A
O600       Zr608   2.436       .  S
O600        C619   1.284       .  A
O601        C618   1.279       .  A
O602       Zr610   2.390   1_545  S
O602        C617   1.276       .  A
O603       Zr608   2.404       .  S
O603       Zr610   2.386       .  S
O604       Zr609   2.388       .  S
O604       Zr610   2.377       .  S
O604        H639   0.964       .  S
O605       Zr608   2.404       .  S
O605       Zr625   2.399       .  S
O605        H642   0.965       .  S
O606       Zr609   2.386       .  S
O606       Zr625   2.395       .  S
Zr607       O632   2.444       .  S
Zr607       O626   2.440       .  S
Zr607       O634   2.421       .  S
Zr607       O622   2.419       .  S
Zr607       O613   2.398       .  S
Zr607       O614   2.406       .  S
Zr607       O615   2.373       .  S
Zr607       O616   2.386       .  S
Zr608       O627   2.434       .  S
Zr608       O620   2.435       .  S
Zr608       O621   2.438       .  S
Zr608       O614   2.394       .  S
Zr608       O615   2.393       .  S
Zr609       O611   2.434       .  S
Zr609       O633   2.438       .  S
Zr609       O635   2.439       .  S
Zr609       O613   2.401       .  S
Zr609       O616   2.407       .  S
Zr610       O636   2.436   1_565  S
Zr610       O637   2.438   1_565  S
Zr610       O612   2.440   1_565  S
Zr610       O613   2.384       .  S
Zr610       O614   2.375       .  S
O611        H648   0.990       .  S
O612        H643   0.990       .  S
O612        H657   0.990       .  S
O614        H640   0.965       .  S
O615       Zr625   2.377       .  S
O616       Zr625   2.381       .  S
O616        H641   0.967       .  S
C617       C1629   1.469       .  S
C618       C1646   1.494       .  S
C619       C1674   1.484       .  S
O620        H656   0.990       .  S
O621        C623   1.286       .  A
O622        C623   1.280       .  A
C623       C1839   1.472       .  S
O624       Zr625   2.437       .  S
O624        H653   0.990       .  S
Zr625       O628   2.435       .  S
Zr625       O629   2.442       .  S
Zr625       O630   2.430       .  S
O626        C631   1.284       .  A
O627        H644   0.990       .  S
O627        H659   0.990       .  S
O628        H645   0.990       .  S
O629        H649   0.990       .  S
O629        H658   0.990       .  S
O630        C631   1.283       .  A
C631       C1727   1.500       .  S
O632        H651   0.990       .  S
O632        H655   0.990       .  S
O633        H647   0.990       .  S
O633        H654   0.989       .  S
O634        C638   1.280       .  A
O635        C638   1.286       .  A
O636        H646   0.990   1_545  S
O637        H650   0.990       .  S
C638       C1688   1.483       .  S
Zr661       O662   2.444       .  S
Zr661       O663   2.470       .  S
Zr661       O664   2.458       .  S
Zr661       O667   2.434       .  S
Zr661       O669   2.391       .  S
Zr661       O670   2.390   1_554  S
Zr661       O671   2.421       .  S
Zr661       O672   2.410       .  S
O662        H718   0.990       .  S
O662        H726   0.991       .  S
O663        C683   1.288   1_655  A
O664        C685   1.288       .  A
O665       Zr675   2.448       .  S
O665        C684   1.287   1_556  A
O666       Zr674   2.468       .  S
O666        C685   1.292       .  A
O667        C684   1.282       .  A
O668       Zr676   2.375   1_455  S
O668        C683   1.271   1_556  A
O669       Zr674   2.414       .  S
O669       Zr676   2.389   1_554  S
O670       Zr675   2.397       .  S
O670       Zr676   2.388       .  S
O670        H705   0.965       .  S
O671       Zr674   2.402       .  S
O671       Zr691   2.378       .  S
O671        H708   0.963       .  S
O672       Zr675   2.389   1_554  S
O672       Zr691   2.394       .  S
Zr673       O698   2.445       .  S
Zr673       O692   2.431       .  S
Zr673       O700   2.448       .  S
Zr673       O688   2.397       .  S
Zr673       O679   2.381       .  S
Zr673       O680   2.419       .  S
Zr673       O681   2.379       .  S
Zr673       O682   2.379       .  S
Zr674       O693   2.431       .  S
Zr674       O686   2.436       .  S
Zr674       O687   2.464   1_554  S
Zr674       O680   2.403   1_554  S
Zr674       O681   2.394   1_554  S
Zr675       O677   2.437       .  S
Zr675       O699   2.438       .  S
Zr675       O701   2.453       .  S
Zr675       O679   2.378       .  S
Zr675       O682   2.406       .  S
Zr676       O702   2.434       .  S
Zr676       O703   2.438       .  S
Zr676       O678   2.434   1_655  S
Zr676       O679   2.368       .  S
Zr676       O680   2.370       .  S
O677        H714   0.990       .  S
O678        H709   0.990       .  S
O678        H723   0.990       .  S
O680        H706   0.962       .  S
O681       Zr691   2.372   1_556  S
O682       Zr691   2.389   1_556  S
O682        H707   0.966       .  S
C683       C1702   1.474       .  S
C684       C2077   1.480       .  S
C685       C1615   1.506       .  S
O686        H722   0.990       .  S
O687        C689   1.293       .  A
O688        C689   1.276       .  A
C689       C1573   1.479       .  S
O690       Zr691   2.435       .  S
O690        H719   0.990       .  S
Zr691       O694   2.437       .  S
Zr691       O695   2.436   1_554  S
Zr691       O696   2.409   1_554  S
O692        C697   1.282       .  A
O693        H710   0.989       .  S
O693        H725   0.989       .  S
O694        H711   0.990       .  S
O695        H715   0.990   1_556  S
O695        H724   0.990       .  S
O696        C697   1.277       .  A
C697       C1587   1.482       .  S
O698        H717   0.989       .  S
O698        H721   0.991       .  S
O699        H713   0.990       .  S
O699        H720   0.990       .  S
O700        C704   1.286       .  A
O701        C704   1.288       .  A
O702        H712   0.990       .  S
O703        H716   0.990       .  S
C704       C1604   1.495       .  S
Zr727       O728   2.446       .  S
Zr727       O729   2.471       .  S
Zr727       O730   2.451       .  S
Zr727       O733   2.402       .  S
Zr727       O735   2.377       .  S
Zr727       O736   2.387       .  S
Zr727       O737   2.420       .  S
Zr727       O738   2.412       .  S
O728        H784   0.990       .  S
O728        H792   0.991       .  S
O729        C749   1.288   1_655  A
O730        C751   1.285       .  A
O731       Zr741   2.468       .  S
O731        C750   1.292       .  A
O732       Zr740   2.455       .  S
O732        C751   1.289       .  A
O733        C750   1.278       .  A
O734       Zr742   2.386   1_455  S
O734        C749   1.274       .  A
O735       Zr740   2.407       .  S
O735       Zr742   2.381       .  S
O736       Zr741   2.396       .  S
O736       Zr742   2.385       .  S
O736        H771   0.965       .  S
O737       Zr740   2.405       .  S
O737       Zr757   2.386       .  S
O737        H774   0.964       .  S
O738       Zr741   2.385       .  S
O738       Zr757   2.387       .  S
Zr739       O764   2.443       .  S
Zr739       O758   2.440       .  S
Zr739       O766   2.442       .  S
Zr739       O754   2.426       .  S
Zr739       O745   2.389       .  S
Zr739       O746   2.413       .  S
Zr739       O747   2.381       .  S
Zr739       O748   2.386       .  S
Zr740       O759   2.435       .  S
Zr740       O752   2.435       .  S
Zr740       O753   2.448       .  S
Zr740       O746   2.407       .  S
Zr740       O747   2.398       .  S
Zr741       O743   2.436       .  S
Zr741       O765   2.432       .  S
Zr741       O767   2.453       .  S
Zr741       O745   2.390       .  S
Zr741       O748   2.398       .  S
Zr742       O768   2.433   1_655  S
Zr742       O769   2.436   1_655  S
Zr742       O744   2.436   1_655  S
Zr742       O745   2.384       .  S
Zr742       O746   2.377       .  S
O743        H780   0.990       .  S
O744        H775   0.990       .  S
O744        H789   0.990       .  S
O746        H772   0.964       .  S
O747       Zr757   2.378       .  S
O748       Zr757   2.383       .  S
O748        H773   0.967       .  S
C749       C1643   1.478       .  S
C750       C2024   1.489       .  S
C751       C1601   1.499       .  S
O752        H788   0.990       .  S
O753        C755   1.288       .  A
O754        C755   1.281       .  A
C755       C1548   1.487       .  S
O756       Zr757   2.437       .  S
O756        H785   0.990       .  S
Zr757       O760   2.437       .  S
Zr757       O761   2.438       .  S
Zr757       O762   2.408       .  S
O758        C763   1.284       .  A
O759        H776   0.990       .  S
O759        H791   0.989       .  S
O760        H777   0.990       .  S
O761        H781   0.990       .  S
O761        H790   0.990       .  S
O762        C763   1.278       .  A
C763       C1559   1.478       .  S
O764        H783   0.991       .  S
O764        H787   0.990       .  S
O765        H779   0.990       .  S
O765        H786   0.987       .  S
O766        C770   1.286       .  A
O767        C770   1.289       .  A
O768        H778   0.990   1_455  S
O769        H782   0.990   1_455  S
C770       C1618   1.502       .  S
Zr793       O794   2.446       .  S
Zr793       O795   2.453       .  S
Zr793       O796   2.444       .  S
Zr793       O799   2.407       .  S
Zr793       O801   2.380       .  S
Zr793       O802   2.384       .  S
Zr793       O803   2.411       .  S
Zr793       O804   2.410       .  S
O794        H850   0.990       .  S
O794        H858   0.990       .  S
O795        C815   1.284       .  A
O796        C817   1.284       .  A
O797       Zr807   2.484       .  S
O797        C816   1.295       .  A
O798       Zr806   2.445       .  S
O798        C817   1.286       .  A
O799        C816   1.278       .  A
O800       Zr808   2.371       .  S
O800        C815   1.271       .  A
O801       Zr806   2.408       .  S
O801       Zr808   2.387       .  S
O802       Zr807   2.387       .  S
O802       Zr808   2.392       .  S
O802        H837   0.967       .  S
O803       Zr806   2.406       .  S
O803       Zr823   2.385       .  S
O803        H840   0.967       .  S
O804       Zr807   2.383       .  S
O804       Zr823   2.396       .  S
Zr805       O830   2.443       .  S
Zr805       O824   2.423       .  S
Zr805       O832   2.418   1_556  S
Zr805       O820   2.434       .  S
Zr805       O811   2.388       .  S
Zr805       O812   2.401       .  S
Zr805       O813   2.377       .  S
Zr805       O814   2.391       .  S
Zr806       O825   2.436       .  S
Zr806       O818   2.433       .  S
Zr806       O819   2.460       .  S
Zr806       O812   2.404       .  S
Zr806       O813   2.404       .  S
Zr807       O809   2.435       .  S
Zr807       O831   2.437       .  S
Zr807       O833   2.451   1_556  S
Zr807       O811   2.401       .  S
Zr807       O814   2.397       .  S
Zr808       O834   2.435       .  S
Zr808       O835   2.438       .  S
Zr808       O810   2.440       .  S
Zr808       O811   2.372       .  S
Zr808       O812   2.380       .  S
O809        H846   0.990       .  S
O810        H841   0.990       .  S
O810        H855   0.990       .  S
O812        H838   0.965       .  S
O813       Zr823   2.381       .  S
O814       Zr823   2.373       .  S
O814        H839   0.967       .  S
C815       C2010   1.461       .  S
C816       C1758   1.505       .  S
C817       C1517   1.487       .  S
O818        H854   0.990       .  S
O819        C821   1.290       .  A
O820        C821   1.283       .  A
C821       C1503   1.501       .  S
O822       Zr823   2.433       .  S
O822        H851   0.990       .  S
Zr823       O826   2.437       .  S
Zr823       O827   2.439       .  S
Zr823       O828   2.412       .  S
O824        C829   1.281       .  A
O825        H842   0.990       .  S
O825        H857   0.990       .  S
O826        H843   0.990       .  S
O827        H847   0.990       .  S
O827        H856   0.990       .  S
O828        C829   1.279       .  A
C829       C1590   1.497       .  S
O830        H849   0.991       .  S
O830        H853   0.989       .  S
O831        H845   0.990       .  S
O831        H852   0.990       .  S
O832        C836   1.282       .  A
O833        C836   1.289       .  A
O834        H844   0.990       .  S
O835        H848   0.989       .  S
C836       C1531   1.483       .  S
Zr859       O860   2.446       .  S
Zr859       O861   2.465       .  S
Zr859       O862   2.434       .  S
Zr859       O865   2.402       .  S
Zr859       O867   2.371       .  S
Zr859       O868   2.382       .  S
Zr859       O869   2.414       .  S
Zr859       O870   2.409       .  S
O860        H916   0.990       .  S
O860        H924   0.991       .  S
O861        C881   1.286       .  A
O862        C883   1.282       .  A
O863       Zr873   2.466       .  S
O863        C882   1.291       .  A
O864       Zr872   2.432       .  S
O864        C883   1.284       .  A
O865        C882   1.277       .  A
O866       Zr874   2.366       .  S
O866        C881   1.271       .  A
O867       Zr872   2.398       .  S
O867       Zr874   2.384       .  S
O868       Zr873   2.393       .  S
O868       Zr874   2.389       .  S
O868        H903   0.964       .  S
O869       Zr872   2.401       .  S
O869       Zr889   2.391       .  S
O869        H906   0.964       .  S
O870       Zr873   2.384       .  S
O870       Zr889   2.394       .  S
Zr871       O896   2.444       .  S
Zr871       O890   2.435       .  S
Zr871       O898   2.443       .  S
Zr871       O886   2.426       .  S
Zr871       O877   2.388       .  S
Zr871       O878   2.407       .  S
Zr871       O879   2.379       .  S
Zr871       O880   2.388       .  S
Zr872       O891   2.437       .  S
Zr872       O884   2.430       .  S
Zr872       O885   2.439       .  S
Zr872       O878   2.398       .  S
Zr872       O879   2.398       .  S
Zr873       O875   2.435       .  S
Zr873       O897   2.437       .  S
Zr873       O899   2.439       .  S
Zr873       O877   2.402       .  S
Zr873       O880   2.406       .  S
Zr874       O900   2.435       .  S
Zr874       O901   2.438       .  S
Zr874       O876   2.441       .  S
Zr874       O877   2.377       .  S
Zr874       O878   2.370       .  S
O875        H912   0.990       .  S
O876        H907   0.990       .  S
O876        H921   0.990       .  S
O878        H904   0.963       .  S
O879       Zr889   2.378       .  S
O880       Zr889   2.379       .  S
O880        H905   0.967       .  S
C881       C1940   1.468       .  S
C882       C1716   1.484       .  S
C883       C1534   1.479       .  S
O884        H920   0.990       .  S
O885        C887   1.286       .  A
O886        C887   1.283       .  A
C887       C1489   1.485       .  S
O888       Zr889   2.436       .  S
O888        H917   0.991       .  S
Zr889       O892   2.436       .  S
Zr889       O893   2.440       .  S
Zr889       O894   2.416       .  S
O890        C895   1.284       .  A
O891        H908   0.990       .  S
O891        H923   0.990       .  S
O892        H909   0.989       .  S
O893        H913   0.989       .  S
O893        H922   0.990       .  S
O894        C895   1.279       .  A
C895       C1562   1.503       .  S
O896        H915   0.989       .  S
O896        H919   0.991       .  S
O897        H911   0.990       .  S
O897        H918   0.990       .  S
O898        C902   1.284       .  A
O899        C902   1.286       .  A
O900        H910   0.990       .  S
O901        H914   0.989       .  S
C902       C1520   1.488       .  S
Zr925       O926   2.446       .  S
Zr925       O927   2.469       .  S
Zr925       O928   2.443       .  S
Zr925       O931   2.396       .  S
Zr925       O933   2.372       .  S
Zr925       O934   2.383   1_554  S
Zr925       O935   2.421       .  S
Zr925       O936   2.415   1_554  S
O926        H982   0.991       .  S
O926        H990   0.991       .  S
O927        C947   1.287   1_554  A
O928        C949   1.282       .  A
O929       Zr939   2.459       .  S
O929        C948   1.290       .  A
O930       Zr938   2.427       .  S
O930        C949   1.282       .  A
O931        C948   1.277   1_554  A
O932       Zr940   2.394       .  S
O932        C947   1.275       .  A
O933       Zr938   2.401       .  S
O933       Zr940   2.390   1_554  S
O934       Zr939   2.390       .  S
O934       Zr940   2.377       .  S
O934        H969   0.966       .  S
O935       Zr938   2.398       .  S
O935       Zr955   2.397   1_554  S
O935        H972   0.961       .  S
O936       Zr939   2.387       .  S
O936       Zr955   2.391       .  S
Zr937       O962   2.441       .  S
Zr937       O956   2.448       .  S
Zr937       O964   2.455       .  S
Zr937       O952   2.442       .  S
Zr937       O943   2.402       .  S
Zr937       O944   2.410       .  S
Zr937       O945   2.379       .  S
Zr937       O946   2.390       .  S
Zr938       O957   2.439       .  S
Zr938       O950   2.435       .  S
Zr938       O951   2.411   1_554  S
Zr938       O944   2.394   1_554  S
Zr938       O945   2.396   1_554  S
Zr939       O941   2.435       .  S
Zr939       O963   2.437       .  S
Zr939       O965   2.439       .  S
Zr939       O943   2.397       .  S
Zr939       O946   2.405       .  S
Zr940       O966   2.435       .  S
Zr940       O967   2.434       .  S
Zr940       O942   2.439   1_455  S
Zr940       O943   2.388       .  S
Zr940       O944   2.379       .  S
O941        H978   0.990       .  S
O942        H973   0.990       .  S
O942        H987   0.990   1_556  S
O944        H970   0.963       .  S
O945       Zr955   2.377       .  S
O946       Zr955   2.375       .  S
O946        H971   0.966       .  S
C947       C2147   1.481   1_456  S
C948       C1660   1.482       .  S
C949       C1475   1.480       .  S
O950        H986   0.990       .  S
O951        C953   1.279       .  A
O952        C953   1.285       .  A
C953       C1433   1.467       .  S
O954       Zr955   2.436   1_554  S
O954        H983   0.990       .  S
Zr955       O958   2.434   1_556  S
Zr955       O959   2.437       .  S
Zr955       O960   2.420       .  S
O956        C961   1.285       .  A
O957        H974   0.990       .  S
O957        H989   0.989       .  S
O958        H975   0.990       .  S
O959        H979   0.990       .  S
O959        H988   0.990       .  S
O960        C961   1.280       .  A
C961       C1447   1.501       .  S
O962        H981   0.990       .  S
O962        H985   0.990       .  S
O963        H977   0.990       .  S
O963        H984   0.990       .  S
O964        C968   1.287       .  A
O965        C968   1.287       .  A
O966        H976   0.990       .  S
O967        H980   0.990       .  S
C968       C1464   1.498       .  S
Zr991       O992   2.444       .  S
Zr991       O993   2.481       .  S
Zr991       O994   2.452       .  S
Zr991       O997   2.405       .  S
Zr991       O999   2.374       .  S
Zr991      O1000   2.383       .  S
Zr991      O1001   2.417       .  S
Zr991      O1002   2.419       .  S
O992       H1048   0.990       .  S
O992       H1056   0.990       .  S
O993       C1013   1.290       .  A
O994       C1015   1.286       .  A
O995      Zr1005   2.451       .  S
O995       C1014   1.288       .  A
O996      Zr1004   2.445       .  S
O996       C1015   1.286       .  A
O997       C1014   1.278       .  A
O998      Zr1006   2.377       .  S
O998       C1013   1.272       .  A
O999      Zr1004   2.404       .  S
O999      Zr1006   2.386       .  S
O1000     Zr1005   2.386       .  S
O1000     Zr1006   2.382       .  S
O1000      H1035   0.964       .  S
O1001     Zr1004   2.408       .  S
O1001     Zr1021   2.400       .  S
O1001      H1038   0.963       .  S
O1002     Zr1005   2.384       .  S
O1002     Zr1021   2.402       .  S
Zr1003     O1028   2.443       .  S
Zr1003     O1022   2.445       .  S
Zr1003     O1030   2.441       .  S
Zr1003     O1018   2.425       .  S
Zr1003     O1009   2.397       .  S
Zr1003     O1010   2.415       .  S
Zr1003     O1011   2.373       .  S
Zr1003     O1012   2.389       .  S
Zr1004     O1023   2.436       .  S
Zr1004     O1016   2.433       .  S
Zr1004     O1017   2.446       .  S
Zr1004     O1010   2.404       .  S
Zr1004     O1011   2.398       .  S
Zr1005     O1007   2.435       .  S
Zr1005     O1029   2.437       .  S
Zr1005     O1031   2.436       .  S
Zr1005     O1009   2.387       .  S
Zr1005     O1012   2.408       .  S
Zr1006     O1032   2.430       .  S
Zr1006     O1033   2.436       .  S
Zr1006     O1008   2.435   1_455  S
Zr1006     O1009   2.376       .  S
Zr1006     O1010   2.363       .  S
O1007      H1044   0.990       .  S
O1008      H1039   0.990       .  S
O1008      H1053   0.990       .  S
O1010      H1036   0.965       .  S
O1011     Zr1021   2.372       .  S
O1012     Zr1021   2.381       .  S
O1012      H1037   0.965       .  S
C1013      C2066   1.481   1_455  S
C1014      C1632   1.481       .  S
C1015      C1461   1.494       .  S
O1016      H1052   0.990       .  S
O1017      C1019   1.288       .  A
O1018      C1019   1.282       .  A
C1019      C1405   1.472       .  S
O1020     Zr1021   2.434       .  S
O1020      H1049   0.989       .  S
Zr1021     O1024   2.437       .  S
Zr1021     O1025   2.441       .  S
Zr1021     O1026   2.429       .  S
O1022      C1027   1.285       .  A
O1023      H1040   0.990       .  S
O1023      H1055   0.990       .  S
O1024      H1041   0.990       .  S
O1025      H1045   0.990       .  S
O1025      H1054   0.990       .  S
O1026      C1027   1.282       .  A
C1027      C1419   1.504       .  S
O1028      H1047   0.991       .  S
O1028      H1051   0.990       .  S
O1029      H1043   0.990       .  S
O1029      H1050   0.989       .  S
O1030      C1034   1.286       .  A
O1031      C1034   1.285       .  A
O1032      H1042   0.990       .  S
O1033      H1046   0.991       .  S
C1034      C1478   1.483       .  S
Zr1057     O1058   2.444       .  S
Zr1057     O1059   2.466       .  S
Zr1057     O1060   2.434       .  S
Zr1057     O1063   2.426       .  S
Zr1057     O1065   2.384       .  S
Zr1057     O1066   2.378       .  S
Zr1057     O1067   2.419       .  S
Zr1057     O1068   2.408       .  S
O1058      H1114   0.990       .  S
O1058      H1122   0.990       .  S
O1059      C1079   1.287       .  A
O1060      C1081   1.282       .  A
O1061     Zr1071   2.433       .  S
O1061      C1080   1.286       .  A
O1062     Zr1070   2.435       .  S
O1062      C1081   1.284       .  A
O1063      C1080   1.282       .  A
O1064     Zr1072   2.393       .  S
O1064      C1079   1.274       .  A
O1065     Zr1070   2.403       .  S
O1065     Zr1072   2.383       .  S
O1066     Zr1071   2.393       .  S
O1066     Zr1072   2.380       .  S
O1066      H1101   0.964       .  S
O1067     Zr1070   2.408       .  S
O1067     Zr1087   2.394       .  S
O1067      H1104   0.964       .  S
O1068     Zr1071   2.385       .  S
O1068     Zr1087   2.396       .  S
Zr1069     O1094   2.442       .  S
Zr1069     O1088   2.454       .  S
Zr1069     O1096   2.447   1_556  S
Zr1069     O1084   2.431       .  S
Zr1069     O1075   2.398       .  S
Zr1069     O1076   2.418       .  S
Zr1069     O1077   2.378       .  S
Zr1069     O1078   2.385       .  S
Zr1070     O1089   2.437       .  S
Zr1070     O1082   2.435       .  S
Zr1070     O1083   2.442       .  S
Zr1070     O1076   2.401       .  S
Zr1070     O1077   2.403       .  S
Zr1071     O1073   2.435       .  S
Zr1071     O1095   2.434       .  S
Zr1071     O1097   2.428   1_556  S
Zr1071     O1075   2.388       .  S
Zr1071     O1078   2.406       .  S
Zr1072     O1098   2.436       .  S
Zr1072     O1099   2.436       .  S
Zr1072     O1074   2.438       .  S
Zr1072     O1075   2.386       .  S
Zr1072     O1076   2.380       .  S
O1073      H1110   0.990       .  S
O1074      H1105   0.990       .  S
O1074      H1119   0.989       .  S
O1076      H1102   0.964       .  S
O1077     Zr1087   2.377       .  S
O1078     Zr1087   2.382       .  S
O1078      H1103   0.966       .  S
C1079      C1814   1.482       .  S
C1080      C1954   1.487       .  S
C1081      C1377   1.478       .  S
O1082      H1118   0.990       .  S
O1083      C1085   1.286       .  A
O1084      C1085   1.284       .  A
C1085      C1363   1.486       .  S
O1086     Zr1087   2.433       .  S
O1086      H1115   0.990       .  S
Zr1087     O1090   2.437       .  S
Zr1087     O1091   2.436       .  S
Zr1087     O1092   2.425       .  S
O1088      C1093   1.287       .  A
O1089      H1106   0.990       .  S
O1089      H1121   0.990       .  S
O1090      H1107   0.990       .  S
O1091      H1111   0.989       .  S
O1091      H1120   0.990       .  S
O1092      C1093   1.280       .  A
C1093      C1450   1.499       .  S
O1094      H1113   0.990       .  S
O1094      H1117   0.990       .  S
O1095      H1109   0.989       .  S
O1095      H1116   0.990       .  S
O1096      C1100   1.287       .  A
O1097      C1100   1.283       .  A
O1098      H1108   0.990       .  S
O1099      H1112   0.990       .  S
C1100      C1391   1.485       .  S
Zr1123     O1124   2.443       .  S
Zr1123     O1125   2.465       .  S
Zr1123     O1126   2.444       .  S
Zr1123     O1129   2.439       .  S
Zr1123     O1131   2.387       .  S
Zr1123     O1132   2.384       .  S
Zr1123     O1133   2.420       .  S
Zr1123     O1134   2.405       .  S
O1124      H1180   0.990       .  S
O1124      H1188   0.991       .  S
O1125      C1145   1.287       .  A
O1126      C1147   1.284       .  A
O1127     Zr1137   2.441       .  S
O1127      C1146   1.287       .  A
O1128     Zr1136   2.445       .  S
O1128      C1147   1.287       .  A
O1129      C1146   1.284       .  A
O1130     Zr1138   2.393       .  S
O1130      C1145   1.275       .  A
O1131     Zr1136   2.405       .  S
O1131     Zr1138   2.385       .  S
O1132     Zr1137   2.397       .  S
O1132     Zr1138   2.382       .  S
O1132      H1167   0.966       .  S
O1133     Zr1136   2.410       .  S
O1133     Zr1153   2.382       .  S
O1133      H1170   0.964       .  S
O1134     Zr1137   2.382       .  S
O1134     Zr1153   2.387       .  S
Zr1135     O1160   2.443       .  S
Zr1135     O1154   2.446       .  S
Zr1135     O1162   2.428       .  S
Zr1135     O1150   2.407       .  S
Zr1135     O1141   2.389       .  S
Zr1135     O1142   2.412       .  S
Zr1135     O1143   2.374       .  S
Zr1135     O1144   2.383       .  S
Zr1136     O1155   2.436       .  S
Zr1136     O1148   2.433       .  S
Zr1136     O1149   2.459       .  S
Zr1136     O1142   2.400       .  S
Zr1136     O1143   2.396       .  S
Zr1137     O1139   2.437       .  S
Zr1137     O1161   2.436       .  S
Zr1137     O1163   2.432       .  S
Zr1137     O1141   2.388       .  S
Zr1137     O1144   2.403       .  S
Zr1138     O1164   2.436       .  S
Zr1138     O1165   2.435       .  S
Zr1138     O1140   2.439       .  S
Zr1138     O1141   2.379       .  S
Zr1138     O1142   2.382       .  S
O1139      H1176   0.990       .  S
O1140      H1171   0.990       .  S
O1140      H1185   0.990       .  S
O1142      H1168   0.962       .  S
O1143     Zr1153   2.377       .  S
O1144     Zr1153   2.380       .  S
O1144      H1169   0.966       .  S
C1145      C1744   1.479       .  S
C1146      C1912   1.491       .  S
C1147      C1394   1.488       .  S
O1148      H1184   0.990       .  S
O1149      C1151   1.290       .  A
O1150      C1151   1.278       .  A
C1151      C1349   1.486       .  S
O1152     Zr1153   2.434       .  S
O1152      H1181   0.990       .  S
Zr1153     O1156   2.431       .  S
Zr1153     O1157   2.437       .  S
Zr1153     O1158   2.415       .  S
O1154      C1159   1.285       .  A
O1155      H1172   0.990       .  S
O1155      H1187   0.989       .  S
O1156      H1173   0.990       .  S
O1157      H1177   0.990       .  S
O1157      H1186   0.990       .  S
O1158      C1159   1.280       .  A
C1159      C1422   1.495       .  S
O1160      H1179   0.991       .  S
O1160      H1183   0.989       .  S
O1161      H1175   0.990       .  S
O1161      H1182   0.990       .  S
O1162      C1166   1.282       .  A
O1163      C1166   1.284       .  A
O1164      H1174   0.990       .  S
O1165      H1178   0.990       .  S
C1166      C1380   1.477       .  S
Zr1189     O1190   2.441   1_556  S
Zr1189     O1191   2.411       .  S
Zr1189     O1192   2.457   1_556  S
Zr1189     O1195   2.439       .  S
Zr1189     O1197   2.388   1_455  S
Zr1189     O1198   2.391       .  S
Zr1189     O1199   2.397       .  S
Zr1189     O1200   2.399       .  S
O1190      H1246   0.990       .  S
O1190      H1254   0.990       .  S
O1191      C1211   1.280       .  A
O1192      C1213   1.287       .  A
O1193     Zr1203   2.412       .  S
O1193      C1212   1.280       .  A
O1194     Zr1202   2.430   1_554  S
O1194      C1213   1.285   1_655  A
O1195      C1212   1.286       .  A
O1196     Zr1204   2.434   1_455  S
O1196      C1211   1.285       .  A
O1197     Zr1202   2.400       .  S
O1197     Zr1204   2.379       .  S
O1198     Zr1203   2.385       .  S
O1198     Zr1204   2.367   1_455  S
O1198      H1233   0.964       .  S
O1199     Zr1202   2.412   1_455  S
O1199     Zr1219   2.389       .  S
O1199      H1236   0.964   1_556  S
O1200     Zr1203   2.386       .  S
O1200     Zr1219   2.372       .  S
Zr1201     O1226   2.444       .  S
Zr1201     O1220   2.471       .  S
Zr1201     O1228   2.453       .  S
Zr1201     O1216   2.408       .  S
Zr1201     O1207   2.408       .  S
Zr1201     O1208   2.420       .  S
Zr1201     O1209   2.372       .  S
Zr1201     O1210   2.385   1_655  S
Zr1202     O1221   2.436   1_556  S
Zr1202     O1214   2.434       .  S
Zr1202     O1215   2.466       .  S
Zr1202     O1208   2.393       .  S
Zr1202     O1209   2.373       .  S
Zr1203     O1205   2.434       .  S
Zr1203     O1227   2.438       .  S
Zr1203     O1229   2.404       .  S
Zr1203     O1207   2.390   1_455  S
Zr1203     O1210   2.386       .  S
Zr1204     O1230   2.433       .  S
Zr1204     O1231   2.435       .  S
Zr1204     O1206   2.437       .  S
Zr1204     O1207   2.400       .  S
Zr1204     O1208   2.396       .  S
O1205      H1242   0.990       .  S
O1206      H1237   0.990       .  S
O1206      H1251   0.990       .  S
O1208      H1234   0.965       .  S
O1209     Zr1219   2.379   1_655  S
O1210     Zr1219   2.385       .  S
O1210      H1235   0.965       .  S
C1211      C1436   1.490       .  S
C1212      C1366   1.481       .  S
C1213      C1335   1.489       .  S
O1214      H1250   0.990   1_556  S
O1215      C1217   1.290       .  A
O1216      C1217   1.279       .  A
C1217      C1506   1.486       .  S
O1218     Zr1219   2.437       .  S
O1218      H1247   0.990       .  S
Zr1219     O1222   2.435       .  S
Zr1219     O1223   2.441       .  S
Zr1219     O1224   2.374   1_455  S
O1220      C1225   1.289       .  A
O1221      H1238   0.990       .  S
O1221      H1253   0.990       .  S
O1222      H1239   0.990   1_556  S
O1223      H1243   0.989       .  S
O1223      H1252   0.990       .  S
O1224      C1225   1.274       .  A
C1225      C1576   1.486       .  S
O1226      H1245   0.991       .  S
O1226      H1249   0.991       .  S
O1227      H1241   0.990       .  S
O1227      H1248   0.989       .  S
O1228      C1232   1.285   1_655  A
O1229      C1232   1.279       .  A
O1230      H1240   0.990   1_655  S
O1231      H1244   0.990       .  S
C1232      C1324   1.486       .  S
Zr1255     O1256   2.441       .  S
Zr1255     O1257   2.408       .  S
Zr1255     O1258   2.424       .  S
Zr1255     O1261   2.416       .  S
Zr1255     O1263   2.385   1_655  S
Zr1255     O1264   2.383       .  S
Zr1255     O1265   2.399       .  S
Zr1255     O1266   2.393       .  S
O1256      H1312   0.990       .  S
O1256      H1320   0.990       .  S
O1257      C1277   1.279       .  A
O1258      C1279   1.281   1_655  A
O1259     Zr1269   2.428       .  S
O1259      C1278   1.285       .  A
O1260     Zr1268   2.441       .  S
O1260      C1279   1.287       .  A
O1261      C1278   1.282       .  A
O1262     Zr1270   2.429   1_655  S
O1262      C1277   1.282       .  A
O1263     Zr1268   2.392       .  S
O1263     Zr1270   2.375       .  S
O1264     Zr1269   2.384       .  S
O1264     Zr1270   2.370   1_655  S
O1264      H1299   0.967       .  S
O1265     Zr1268   2.401   1_655  S
O1265     Zr1285   2.385       .  S
O1265      H1302   0.966       .  S
O1266     Zr1269   2.389       .  S
O1266     Zr1285   2.375       .  S
Zr1267     O1292   2.442       .  S
Zr1267     O1286   2.443       .  S
Zr1267     O1294   2.427       .  S
Zr1267     O1282   2.407       .  S
Zr1267     O1273   2.399       .  S
Zr1267     O1274   2.417       .  S
Zr1267     O1275   2.379       .  S
Zr1267     O1276   2.386   1_455  S
Zr1268     O1287   2.437       .  S
Zr1268     O1280   2.434       .  S
Zr1268     O1281   2.446       .  S
Zr1268     O1274   2.402       .  S
Zr1268     O1275   2.384       .  S
Zr1269     O1271   2.433       .  S
Zr1269     O1293   2.438       .  S
Zr1269     O1295   2.427       .  S
Zr1269     O1273   2.380   1_655  S
Zr1269     O1276   2.395       .  S
Zr1270     O1296   2.434       .  S
Zr1270     O1297   2.435       .  S
Zr1270     O1272   2.435       .  S
Zr1270     O1273   2.394       .  S
Zr1270     O1274   2.392       .  S
O1271      H1308   0.990       .  S
O1272      H1303   0.990       .  S
O1272      H1317   0.990       .  S
O1274      H1300   0.964       .  S
O1275     Zr1285   2.377   1_455  S
O1276     Zr1285   2.380       .  S
O1276      H1301   0.967       .  S
C1277      C1545   1.470       .  S
C1278      C1492   1.489       .  S
C1279      C1321   1.483       .  S
O1280      H1316   0.990       .  S
O1281      C1283   1.286       .  A
O1282      C1283   1.278       .  A
C1283      C1352   1.473       .  S
O1284     Zr1285   2.437       .  S
O1284      H1313   0.990       .  S
Zr1285     O1288   2.437       .  S
Zr1285     O1289   2.435       .  S
Zr1285     O1290   2.392   1_655  S
O1286      C1291   1.284       .  A
O1287      H1304   0.990       .  S
O1287      H1319   0.990       .  S
O1288      H1305   0.991       .  S
O1289      H1309   0.990       .  S
O1289      H1318   0.990       .  S
O1290      C1291   1.277       .  A
C1291      C1408   1.485       .  S
O1292      H1311   0.990       .  S
O1292      H1315   0.991       .  S
O1293      H1307   0.990       .  S
O1293      H1314   0.990       .  S
O1294      C1298   1.282       .  A
O1295      C1298   1.284   1_655  A
O1296      H1306   0.990   1_455  S
O1297      H1310   0.990       .  S
C1298      C1338   1.482       .  S
C1321      C1322   1.411       .  A
C1321      C1326   1.415   1_455  A
C1322      C1323   1.405       .  A
C1322      C1327   1.453       .  S
C1323      C1324   1.415       .  A
C1323      C1330   1.452       .  S
C1324      C1325   1.413   1_455  A
C1325      C1326   1.416       .  A
C1325      C1328   1.450       .  S
C1326      C1329   1.449       .  S
C1327      N1334   1.157       .  T
C1328      N1333   1.157       .  T
C1329      N1331   1.157       .  T
C1330      N1332   1.157       .  T
C1335      C1336   1.415       .  A
C1335      C1340   1.415       .  A
C1336      C1337   1.407       .  A
C1336      C1341   1.452       .  S
C1337      C1338   1.410       .  A
C1337      C1344   1.454       .  S
C1338      C1339   1.413       .  A
C1339      C1340   1.417       .  A
C1339      C1342   1.451       .  S
C1340      C1343   1.449       .  S
C1341      N1348   1.157       .  T
C1342      N1347   1.158       .  T
C1343      N1345   1.157       .  T
C1344      N1346   1.157       .  T
C1349      C1350   1.421       .  A
C1349      C1354   1.415       .  A
C1350      C1351   1.410       .  A
C1350      C1355   1.452       .  S
C1351      C1352   1.407       .  A
C1351      C1358   1.452       .  S
C1352      C1353   1.410       .  A
C1353      C1354   1.408       .  A
C1353      C1356   1.452       .  S
C1354      C1357   1.451       .  S
C1355      N1362   1.158       .  T
C1356      N1361   1.157       .  T
C1357      N1359   1.157       .  T
C1358      N1360   1.157       .  T
C1363      C1364   1.418       .  A
C1363      C1368   1.412       .  A
C1364      C1365   1.409       .  A
C1364      C1369   1.452       .  S
C1365      C1366   1.410       .  A
C1365      C1372   1.452       .  S
C1366      C1367   1.415       .  A
C1367      C1368   1.410       .  A
C1367      C1370   1.452       .  S
C1368      C1371   1.451       .  S
C1369      N1376   1.157       .  T
C1370      N1375   1.157       .  T
C1371      N1373   1.157       .  T
C1372      N1374   1.157       .  T
C1377      C1378   1.416       .  A
C1377      C1382   1.409       .  A
C1378      C1379   1.407       .  A
C1378      C1383   1.451       .  S
C1379      C1380   1.407       .  A
C1379      C1386   1.452       .  S
C1380      C1381   1.415       .  A
C1381      C1382   1.410       .  A
C1381      C1384   1.449       .  S
C1382      C1385   1.451       .  S
C1383      N1390   1.157       .  T
C1384      N1389   1.157       .  T
C1385      N1387   1.157       .  T
C1386      N1388   1.157       .  T
C1391      C1392   1.415       .  A
C1391      C1396   1.410       .  A
C1392      C1393   1.412       .  A
C1392      C1397   1.450       .  S
C1393      C1394   1.413       .  A
C1393      C1400   1.451       .  S
C1394      C1395   1.417       .  A
C1395      C1396   1.410       .  A
C1395      C1398   1.450       .  S
C1396      C1399   1.452       .  S
C1397      N1404   1.157       .  T
C1398      N1403   1.157       .  T
C1399      N1401   1.157       .  T
C1400      N1402   1.157       .  T
C1405      C1406   1.412       .  A
C1405      C1410   1.409       .  A
C1406      C1407   1.413       .  A
C1406      C1411   1.451       .  S
C1407      C1408   1.415       .  A
C1407      C1414   1.448       .  S
C1408      C1409   1.415       .  A
C1409      C1410   1.402       .  A
C1409      C1412   1.453   1_455  S
C1410      C1413   1.453       .  S
C1411      N1418   1.157       .  T
C1412      N1417   1.157       .  T
C1413      N1415   1.157       .  T
C1414      N1416   1.157       .  T
C1419      C1420   1.417       .  A
C1419      C1424   1.422       .  A
C1420      C1421   1.412       .  A
C1420      C1425   1.450       .  S
C1421      C1422   1.416       .  A
C1421      C1428   1.452       .  S
C1422      C1423   1.412       .  A
C1423      C1424   1.416       .  A
C1423      C1426   1.452       .  S
C1424      C1427   1.450       .  S
C1425      N1432   1.157       .  T
C1426      N1431   1.157       .  T
C1427      N1429   1.157       .  T
C1428      N1430   1.157       .  T
C1433      C1434   1.403       .  A
C1433      C1438   1.409       .  A
C1434      C1435   1.408       .  A
C1434      C1439   1.453       .  S
C1435      C1436   1.424       .  A
C1435      C1442   1.450       .  S
C1436      C1437   1.416       .  A
C1437      C1438   1.406       .  A
C1437      C1440   1.452   1_455  S
C1438      C1441   1.452       .  S
C1439      N1446   1.158   1_556  T
C1440      N1445   1.157       .  T
C1441      N1443   1.157       .  T
C1442      N1444   1.157       .  T
C1447      C1448   1.416       .  A
C1447      C1452   1.418       .  A
C1448      C1449   1.412       .  A
C1448      C1453   1.451       .  S
C1449      C1450   1.414       .  A
C1449      C1456   1.447       .  S
C1450      C1451   1.416       .  A
C1451      C1452   1.418       .  A
C1451      C1454   1.450       .  S
C1452      C1455   1.451       .  S
C1453      N1460   1.157       .  T
C1454      N1459   1.157       .  T
C1455      N1457   1.157       .  T
C1456      N1458   1.155       .  T
C1461      C1462   1.416       .  A
C1461      C1466   1.412       .  A
C1462      C1463   1.410       .  A
C1462      C1467   1.452       .  S
C1463      C1464   1.414       .  A
C1463      C1470   1.452       .  S
C1464      C1465   1.421       .  A
C1465      C1466   1.418       .  A
C1465      C1468   1.450       .  S
C1466      C1469   1.450       .  S
C1467      N1474   1.157       .  T
C1468      N1473   1.157       .  T
C1469      N1471   1.157       .  T
C1470      N1472   1.157       .  T
C1475      C1476   1.415       .  A
C1475      C1480   1.410       .  A
C1476      C1477   1.407       .  A
C1476      C1481   1.450       .  S
C1477      C1478   1.408       .  A
C1477      C1484   1.450       .  S
C1478      C1479   1.415       .  A
C1479      C1480   1.412       .  A
C1479      C1482   1.448       .  S
C1480      C1483   1.451       .  S
C1481      N1488   1.156       .  T
C1482      N1487   1.156       .  T
C1483      N1485   1.157       .  T
C1484      N1486   1.157       .  T
C1489      C1490   1.415       .  A
C1489      C1494   1.415       .  A
C1490      C1491   1.410       .  A
C1490      C1495   1.453       .  S
C1491      C1492   1.418       .  A
C1491      C1498   1.452       .  S
C1492      C1493   1.414       .  A
C1493      C1494   1.407       .  A
C1493      C1496   1.453       .  S
C1494      C1497   1.451       .  S
C1495      N1502   1.158       .  T
C1496      N1501   1.157       .  T
C1497      N1499   1.157       .  T
C1498      N1500   1.158       .  T
C1503      C1504   1.417       .  A
C1503      C1508   1.422       .  A
C1504      C1505   1.412       .  A
C1504      C1509   1.450       .  S
C1505      C1506   1.412       .  A
C1505      C1512   1.453       .  S
C1506      C1507   1.409       .  A
C1507      C1508   1.416       .  A
C1507      C1510   1.451       .  S
C1508      C1511   1.451       .  S
C1509      N1516   1.157       .  T
C1510      N1515   1.157       .  T
C1511      N1513   1.157       .  T
C1512      N1514   1.157       .  T
C1517      C1518   1.408       .  A
C1517      C1522   1.417       .  A
C1518      C1519   1.413       .  A
C1518      C1523   1.450       .  S
C1519      C1520   1.418       .  A
C1519      C1526   1.450       .  S
C1520      C1521   1.410       .  A
C1521      C1522   1.411       .  A
C1521      C1524   1.452       .  S
C1522      C1525   1.449       .  S
C1523      N1530   1.157       .  T
C1524      N1529   1.157       .  T
C1525      N1527   1.156       .  T
C1526      N1528   1.157       .  T
C1531      C1532   1.418       .  A
C1531      C1536   1.409       .  A
C1532      C1533   1.410       .  A
C1532      C1537   1.450       .  S
C1533      C1534   1.407       .  A
C1533      C1540   1.451       .  S
C1534      C1535   1.416       .  A
C1535      C1536   1.408       .  A
C1535      C1538   1.451       .  S
C1536      C1539   1.452       .  S
C1537      N1544   1.157       .  T
C1538      N1543   1.157       .  T
C1539      N1541   1.157       .  T
C1540      N1542   1.157       .  T
C1545      C1546   1.405       .  A
C1545      C1550   1.408       .  A
C1546      C1547   1.409       .  A
C1546      C1551   1.451   1_655  S
C1547      C1548   1.419       .  A
C1547      C1554   1.450       .  S
C1548      C1549   1.419       .  A
C1549      C1550   1.408       .  A
C1549      C1552   1.452       .  S
C1550      C1553   1.453       .  S
C1551      N1558   1.157       .  T
C1552      N1557   1.158       .  T
C1553      N1555   1.158       .  T
C1554      N1556   1.157   1_655  T
C1559      C1560   1.406       .  A
C1559      C1564   1.409       .  A
C1560      C1561   1.412       .  A
C1560      C1565   1.452       .  S
C1561      C1562   1.426       .  A
C1561      C1568   1.450       .  S
C1562      C1563   1.421       .  A
C1563      C1564   1.409       .  A
C1563      C1566   1.451       .  S
C1564      C1567   1.453       .  S
C1565      N1572   1.157       .  T
C1566      N1571   1.157       .  T
C1567      N1569   1.157       .  T
C1568      N1570   1.157       .  T
C1573      C1574   1.419       .  A
C1573      C1578   1.409       .  A
C1574      C1575   1.416       .  A
C1574      C1579   1.451       .  S
C1575      C1576   1.413       .  A
C1575      C1582   1.450       .  S
C1576      C1577   1.417       .  A
C1577      C1578   1.401       .  A
C1577      C1580   1.453   1_655  S
C1578      C1581   1.453       .  S
C1579      N1586   1.157       .  T
C1580      N1585   1.157       .  T
C1581      N1583   1.157   1_655  T
C1582      N1584   1.157       .  T
C1587      C1588   1.413       .  A
C1587      C1592   1.408       .  A
C1588      C1589   1.411       .  A
C1588      C1593   1.452   1_556  S
C1589      C1590   1.420       .  A
C1589      C1596   1.453   1_556  S
C1590      C1591   1.422       .  A
C1591      C1592   1.408       .  A
C1591      C1594   1.452       .  S
C1592      C1595   1.452       .  S
C1593      N1600   1.157       .  T
C1594      N1599   1.157       .  T
C1595      N1597   1.157       .  T
C1596      N1598   1.158       .  T
C1601      C1602   1.417       .  A
C1601      C1606   1.417       .  A
C1602      C1603   1.412       .  A
C1602      C1607   1.450       .  S
C1603      C1604   1.412       .  A
C1603      C1610   1.451       .  S
C1604      C1605   1.417       .  A
C1605      C1606   1.418       .  A
C1605      C1608   1.450       .  S
C1606      C1609   1.451       .  S
C1607      N1614   1.157       .  T
C1608      N1613   1.157       .  T
C1609      N1611   1.157       .  T
C1610      N1612   1.157       .  T
C1615      C1616   1.420       .  A
C1615      C1620   1.418       .  A
C1616      C1617   1.416       .  A
C1616      C1621   1.449       .  S
C1617      C1618   1.415       .  A
C1617      C1624   1.453       .  S
C1618      C1619   1.417       .  A
C1619      C1620   1.419       .  A
C1619      C1622   1.450       .  S
C1620      C1623   1.451       .  S
C1621      N1628   1.156       .  T
C1622      N1627   1.157       .  T
C1623      N1625   1.157       .  T
C1624      N1626   1.157       .  T
C1629      C1630   1.405       .  A
C1629      C1634   1.410       .  A
C1630      C1631   1.409       .  A
C1630      C1635   1.450       .  S
C1631      C1632   1.417       .  A
C1631      C1638   1.450       .  S
C1632      C1633   1.411       .  A
C1633      C1634   1.407       .  A
C1633      C1636   1.450       .  S
C1634      C1637   1.450       .  S
C1635      N1642   1.157       .  T
C1636      N1641   1.157       .  T
C1637      N1639   1.157   1_545  T
C1638      N1640   1.157       .  T
C1643      C1644   1.412       .  A
C1643      C1648   1.405       .  A
C1644      C1645   1.411       .  A
C1644      C1649   1.448       .  S
C1645      C1646   1.413       .  A
C1645      C1652   1.450       .  S
C1646      C1647   1.423       .  A
C1647      C1648   1.412       .  A
C1647      C1650   1.451       .  S
C1648      C1651   1.451       .  S
C1649      N1656   1.156   1_455  T
C1650      N1655   1.157       .  T
C1651      N1653   1.157       .  T
C1652      N1654   1.157       .  T
C1657      C1658   1.405   1_556  A
C1657      C1662   1.409       .  A
C1658      C1659   1.409       .  A
C1658      C1663   1.452       .  S
C1659      C1660   1.420   1_554  A
C1659      C1666   1.451       .  S
C1660      C1661   1.411       .  A
C1661      C1662   1.408       .  A
C1661      C1664   1.449       .  S
C1662      C1665   1.450       .  S
C1663      N1670   1.157       .  T
C1664      N1669   1.157       .  T
C1665      N1667   1.157   1_545  T
C1666      N1668   1.157       .  T
C1671      C1672   1.411       .  A
C1671      C1676   1.414       .  A
C1672      C1673   1.408       .  A
C1672      C1677   1.451       .  S
C1673      C1674   1.415       .  A
C1673      C1680   1.451       .  S
C1674      C1675   1.414       .  A
C1675      C1676   1.409       .  A
C1675      C1678   1.451       .  S
C1676      C1679   1.452       .  S
C1677      N1684   1.157       .  T
C1678      N1683   1.157       .  T
C1679      N1681   1.157       .  T
C1680      N1682   1.157       .  T
C1685      C1686   1.418       .  A
C1685      C1690   1.408       .  A
C1686      C1687   1.409       .  A
C1686      C1691   1.452       .  S
C1687      C1688   1.409       .  A
C1687      C1694   1.452       .  S
C1688      C1689   1.418       .  A
C1689      C1690   1.410       .  A
C1689      C1692   1.451       .  S
C1690      C1693   1.451       .  S
C1691      N1698   1.157       .  T
C1692      N1697   1.157       .  T
C1693      N1695   1.157       .  T
C1694      N1696   1.157       .  T
C1699      C1700   1.419   1_556  A
C1699      C1704   1.411       .  A
C1700      C1701   1.411       .  A
C1700      C1705   1.450       .  S
C1701      C1702   1.406       .  A
C1701      C1708   1.451       .  S
C1702      C1703   1.413   1_554  A
C1703      C1704   1.411       .  A
C1703      C1706   1.451       .  S
C1704      C1707   1.450       .  S
C1705      N1712   1.157       .  T
C1706      N1711   1.157   1_455  T
C1707      N1709   1.157       .  T
C1708      N1710   1.157       .  T
C1713      C1714   1.408       .  A
C1713      C1718   1.413       .  A
C1714      C1715   1.410       .  A
C1714      C1719   1.452       .  S
C1715      C1716   1.417       .  A
C1715      C1722   1.450       .  S
C1716      C1717   1.409       .  A
C1717      C1718   1.412       .  A
C1717      C1720   1.451       .  S
C1718      C1721   1.446       .  S
C1719      N1726   1.157       .  T
C1720      N1725   1.157       .  T
C1721      N1723   1.155       .  T
C1722      N1724   1.157       .  T
C1727      C1728   1.418       .  A
C1727      C1732   1.417       .  A
C1728      C1729   1.413       .  A
C1728      C1733   1.451       .  S
C1729      C1730   1.415       .  A
C1729      C1736   1.454       .  S
C1730      C1731   1.416       .  A
C1731      C1732   1.416       .  A
C1731      C1734   1.451       .  S
C1732      C1735   1.452       .  S
C1733      N1740   1.157       .  T
C1734      N1739   1.157       .  T
C1735      N1737   1.157       .  T
C1736      N1738   1.158       .  T
C1741      C1742   1.414       .  A
C1741      C1746   1.420       .  A
C1742      C1743   1.408       .  A
C1742      C1747   1.449       .  S
C1743      C1744   1.410       .  A
C1743      C1750   1.453       .  S
C1744      C1745   1.408       .  A
C1745      C1746   1.415       .  A
C1745      C1748   1.450       .  S
C1746      C1749   1.450       .  S
C1747      N1754   1.156       .  T
C1748      N1753   1.157       .  T
C1749      N1751   1.157       .  T
C1750      N1752   1.157       .  T
C1755      C1756   1.405       .  A
C1755      C1760   1.417       .  A
C1756      C1757   1.415       .  A
C1756      C1761   1.452       .  S
C1757      C1758   1.426       .  A
C1757      C1764   1.448       .  S
C1758      C1759   1.414       .  A
C1759      C1760   1.415       .  A
C1759      C1762   1.451       .  S
C1760      C1763   1.450       .  S
C1761      N1768   1.157       .  T
C1762      N1767   1.157       .  T
C1763      N1765   1.156       .  T
C1764      N1766   1.156       .  T
C1769      C1770   1.421       .  A
C1769      C1774   1.422       .  A
C1770      C1771   1.412       .  A
C1770      C1775   1.450       .  S
C1771      C1772   1.408       .  A
C1771      C1778   1.452       .  S
C1772      C1773   1.408       .  A
C1773      C1774   1.411       .  A
C1773      C1776   1.452       .  S
C1774      C1777   1.452       .  S
C1775      N1782   1.157       .  T
C1776      N1781   1.157   1_556  T
C1777      N1779   1.157       .  T
C1778      N1780   1.157       .  T
C1783      C1784   1.413       .  A
C1783      C1788   1.415       .  A
C1784      C1785   1.413       .  A
C1784      C1789   1.452       .  S
C1785      C1786   1.417       .  A
C1785      C1792   1.450       .  S
C1786      C1787   1.416       .  A
C1787      C1788   1.413       .  A
C1787      C1790   1.452       .  S
C1788      C1791   1.451       .  S
C1789      N1796   1.157       .  T
C1790      N1795   1.157       .  T
C1791      N1793   1.157       .  T
C1792      N1794   1.157       .  T
C1797      C1798   1.413       .  A
C1797      C1802   1.416       .  A
C1798      C1799   1.413       .  A
C1798      C1803   1.452       .  S
C1799      C1800   1.418       .  A
C1799      C1806   1.450       .  S
C1800      C1801   1.412       .  A
C1801      C1802   1.410       .  A
C1801      C1804   1.452       .  S
C1802      C1805   1.451       .  S
C1803      N1810   1.157       .  T
C1804      N1809   1.157       .  T
C1805      N1807   1.157       .  T
C1806      N1808   1.157   1_554  T
C1811      C1812   1.417       .  A
C1811      C1816   1.414       .  A
C1812      C1813   1.414       .  A
C1812      C1817   1.450       .  S
C1813      C1814   1.410       .  A
C1813      C1820   1.451       .  S
C1814      C1815   1.412       .  A
C1815      C1816   1.413       .  A
C1815      C1818   1.452       .  S
C1816      C1819   1.449       .  S
C1817      N1824   1.157       .  T
C1818      N1823   1.157       .  T
C1819      N1821   1.157       .  T
C1820      N1822   1.157       .  T
C1825      C1826   1.413       .  A
C1825      C1830   1.421       .  A
C1826      C1827   1.406       .  A
C1826      C1831   1.450       .  S
C1827      C1828   1.410       .  A
C1827      C1834   1.452       .  S
C1828      C1829   1.403       .  A
C1829      C1830   1.406       .  A
C1829      C1832   1.454       .  S
C1830      C1833   1.449       .  S
C1831      N1838   1.157       .  T
C1832      N1837   1.158       .  T
C1833      N1835   1.156       .  T
C1834      N1836   1.157       .  T
C1839      C1840   1.408       .  A
C1839      C1844   1.414       .  A
C1840      C1841   1.407       .  A
C1840      C1845   1.451       .  S
C1841      C1842   1.413       .  A
C1841      C1848   1.451       .  S
C1842      C1843   1.409       .  A
C1843      C1844   1.408       .  A
C1843      C1846   1.451   1_565  S
C1844      C1847   1.451       .  S
C1845      N1852   1.157       .  T
C1846      N1851   1.157       .  T
C1847      N1849   1.157   1_565  T
C1848      N1850   1.157       .  T
C1853      C1854   1.405       .  A
C1853      C1858   1.413       .  A
C1854      C1855   1.407       .  A
C1854      C1859   1.452       .  S
C1855      C1856   1.417       .  A
C1855      C1862   1.448       .  S
C1856      C1857   1.414       .  A
C1857      C1858   1.410       .  A
C1857      C1860   1.451       .  S
C1858      C1861   1.451       .  S
C1859      N1866   1.157       .  T
C1860      N1865   1.157       .  T
C1861      N1863   1.157       .  T
C1862      N1864   1.156       .  T
C1867      C1868   1.414       .  A
C1867      C1872   1.409       .  A
C1868      C1869   1.408       .  A
C1868      C1873   1.451       .  S
C1869      C1870   1.407       .  A
C1869      C1876   1.451       .  S
C1870      C1871   1.414       .  A
C1871      C1872   1.410       .  A
C1871      C1874   1.451       .  S
C1872      C1875   1.452   1_565  S
C1873      N1880   1.157       .  T
C1874      N1879   1.157   1_565  T
C1875      N1877   1.157       .  T
C1876      N1878   1.157   1_556  T
C1881      C1882   1.414   1_545  A
C1881      C1886   1.409       .  A
C1882      C1883   1.404       .  A
C1882      C1887   1.452       .  S
C1883      C1884   1.407   1_565  A
C1883      C1890   1.453       .  S
C1884      C1885   1.411       .  A
C1885      C1886   1.402       .  A
C1885      C1888   1.452       .  S
C1886      C1889   1.453       .  S
C1887      N1894   1.157       .  T
C1888      N1893   1.157       .  T
C1889      N1891   1.157       .  T
C1890      N1892   1.157       .  T
C1895      C1896   1.406   1_545  A
C1895      C1900   1.413       .  A
C1896      C1897   1.400       .  A
C1896      C1901   1.453       .  S
C1897      C1898   1.413   1_565  A
C1897      C1904   1.453       .  S
C1898      C1899   1.407       .  A
C1899      C1900   1.399       .  A
C1899      C1902   1.453       .  S
C1900      C1903   1.452       .  S
C1901      N1908   1.157       .  T
C1902      N1907   1.157       .  T
C1903      N1905   1.157       .  T
C1904      N1906   1.157       .  T
C1909      C1910   1.409       .  A
C1909      C1914   1.412       .  A
C1910      C1911   1.415       .  A
C1910      C1915   1.451       .  S
C1911      C1912   1.419       .  A
C1911      C1918   1.450       .  S
C1912      C1913   1.413       .  A
C1913      C1914   1.410       .  A
C1913      C1916   1.451       .  S
C1914      C1917   1.451       .  S
C1915      N1922   1.157       .  T
C1916      N1921   1.157       .  T
C1917      N1919   1.157       .  T
C1918      N1920   1.157       .  T
C1923      C1924   1.414       .  A
C1923      C1928   1.414       .  A
C1924      C1925   1.404       .  A
C1924      C1929   1.452       .  S
C1925      C1926   1.410       .  A
C1925      C1932   1.452       .  S
C1926      C1927   1.414       .  A
C1927      C1928   1.414       .  A
C1927      C1930   1.451       .  S
C1928      C1931   1.449       .  S
C1929      N1936   1.157       .  T
C1930      N1935   1.157       .  T
C1931      N1933   1.157       .  T
C1932      N1934   1.157       .  T
C1937      C1938   1.409       .  A
C1937      C1942   1.421       .  A
C1938      C1939   1.405       .  A
C1938      C1943   1.451       .  S
C1939      C1940   1.414       .  A
C1939      C1946   1.452       .  S
C1940      C1941   1.405       .  A
C1941      C1942   1.409       .  A
C1941      C1944   1.451       .  S
C1942      C1945   1.451       .  S
C1943      N1950   1.157       .  T
C1944      N1949   1.157       .  T
C1945      N1947   1.157       .  T
C1946      N1948   1.157       .  T
C1951      C1952   1.406       .  A
C1951      C1956   1.410       .  A
C1952      C1953   1.412       .  A
C1952      C1957   1.451       .  S
C1953      C1954   1.420       .  A
C1953      C1960   1.450       .  S
C1954      C1955   1.413       .  A
C1955      C1956   1.406       .  A
C1955      C1958   1.452       .  S
C1956      C1959   1.452       .  S
C1957      N1964   1.157       .  T
C1958      N1963   1.157       .  T
C1959      N1961   1.157       .  T
C1960      N1962   1.157       .  T
C1965      C1966   1.412       .  A
C1965      C1970   1.425       .  A
C1966      C1967   1.402       .  A
C1966      C1971   1.453       .  S
C1967      C1968   1.430       .  A
C1967      C1974   1.459       .  S
C1968      C1969   1.408       .  A
C1969      C1970   1.417       .  A
C1969      C1972   1.450   1_556  S
C1970      C1973   1.448       .  S
C1971      N1978   1.157       .  T
C1972      N1977   1.158       .  T
C1973      N1975   1.157   1_556  T
C1974      N1976   1.157       .  T
C1979      C1980   1.409       .  A
C1979      C1984   1.420       .  A
C1980      C1981   1.414       .  A
C1980      C1985   1.450       .  S
C1981      C1982   1.420       .  A
C1981      C1988   1.449       .  S
C1982      C1983   1.410       .  A
C1983      C1984   1.417       .  A
C1983      C1986   1.450       .  S
C1984      C1987   1.451       .  S
C1985      N1992   1.157       .  T
C1986      N1991   1.157       .  T
C1987      N1989   1.157       .  T
C1988      N1990   1.156       .  T
C1993      C1994   1.415       .  A
C1993      C1998   1.416       .  A
C1994      C1995   1.415       .  A
C1994      C1999   1.452       .  S
C1995      C1996   1.416       .  A
C1995      C2002   1.450       .  S
C1996      C1997   1.412       .  A
C1997      C1998   1.411       .  A
C1997      C2000   1.450       .  S
C1998      C2001   1.451       .  S
C1999      N2006   1.157       .  T
C2000      N2005   1.157       .  T
C2001      N2003   1.157       .  T
C2002      N2004   1.157       .  T
C2007      C2008   1.422       .  A
C2007      C2012   1.412       .  A
C2008      C2009   1.405       .  A
C2008      C2013   1.447       .  S
C2009      C2010   1.399       .  A
C2009      C2016   1.453       .  S
C2010      C2011   1.410       .  A
C2011      C2012   1.409       .  A
C2011      C2014   1.451       .  S
C2012      C2015   1.450       .  S
C2013      N2020   1.156       .  T
C2014      N2019   1.157       .  T
C2015      N2017   1.157       .  T
C2016      N2018   1.157       .  T
C2021      C2022   1.411       .  A
C2021      C2026   1.405       .  A
C2022      C2023   1.410       .  A
C2022      C2027   1.450       .  S
C2023      C2024   1.412       .  A
C2023      C2030   1.449       .  S
C2024      C2025   1.423       .  A
C2025      C2026   1.411       .  A
C2025      C2028   1.451       .  S
C2026      C2029   1.451       .  S
C2027      N2034   1.157   1_565  T
C2028      N2033   1.157       .  T
C2029      N2031   1.157       .  T
C2030      N2032   1.157       .  T
C2035      C2036   1.412       .  A
C2035      C2040   1.410       .  A
C2036      C2037   1.412       .  A
C2036      C2041   1.452       .  S
C2037      C2038   1.414       .  A
C2037      C2044   1.450       .  S
C2038      C2039   1.418       .  A
C2039      C2040   1.412       .  A
C2039      C2042   1.452       .  S
C2040      C2043   1.451       .  S
C2041      N2048   1.157   1_545  T
C2042      N2047   1.157       .  T
C2043      N2045   1.157       .  T
C2044      N2046   1.157       .  T
C2049      C2050   1.409       .  A
C2049      C2054   1.415       .  A
C2050      C2051   1.411       .  A
C2050      C2055   1.449       .  S
C2051      C2052   1.421       .  A
C2051      C2058   1.450       .  S
C2052      C2053   1.417       .  A
C2053      C2054   1.413       .  A
C2053      C2056   1.451       .  S
C2054      C2057   1.451       .  S
C2055      N2062   1.156       .  T
C2056      N2061   1.157       .  T
C2057      N2059   1.157       .  T
C2058      N2060   1.157       .  T
C2063      C2064   1.423       .  A
C2063      C2068   1.415       .  A
C2064      C2065   1.416       .  A
C2064      C2069   1.446       .  S
C2065      C2066   1.405       .  A
C2065      C2072   1.452       .  S
C2066      C2067   1.412       .  A
C2067      C2068   1.411       .  A
C2067      C2070   1.451       .  S
C2068      C2071   1.450       .  S
C2069      N2076   1.156       .  T
C2070      N2075   1.157   1_655  T
C2071      N2073   1.157       .  T
C2072      N2074   1.157       .  T
C2077      C2078   1.410       .  A
C2077      C2082   1.412       .  A
C2078      C2079   1.406       .  A
C2078      C2083   1.449       .  S
C2079      C2080   1.412       .  A
C2079      C2086   1.453       .  S
C2080      C2081   1.412       .  A
C2081      C2082   1.414       .  A
C2081      C2084   1.451       .  S
C2082      C2085   1.449       .  S
C2083      N2090   1.156       .  T
C2084      N2089   1.157   1_565  T
C2085      N2087   1.157       .  T
C2086      N2088   1.157       .  T
C2091      C2092   1.416       .  A
C2091      C2096   1.414       .  A
C2092      C2093   1.411       .  A
C2092      C2097   1.452       .  S
C2093      C2094   1.410       .  A
C2093      C2100   1.449       .  S
C2094      C2095   1.411       .  A
C2095      C2096   1.408       .  A
C2095      C2098   1.452       .  S
C2096      C2099   1.451       .  S
C2097      N2104   1.157       .  T
C2098      N2103   1.157   1_545  T
C2099      N2101   1.157   1_556  T
C2100      N2102   1.156       .  T
C2105      C2106   1.413       .  A
C2105      C2110   1.421       .  A
C2106      C2107   1.412       .  A
C2106      C2111   1.449   1_556  S
C2107      C2108   1.419       .  A
C2107      C2114   1.452   1_556  S
C2108      C2109   1.413       .  A
C2109      C2110   1.413       .  A
C2109      C2112   1.452       .  S
C2110      C2113   1.452       .  S
C2111      N2118   1.157       .  T
C2112      N2117   1.157       .  T
C2113      N2115   1.157       .  T
C2114      N2116   1.157       .  T
C2119      C2120   1.419       .  A
C2119      C2124   1.411       .  A
C2120      C2121   1.416       .  A
C2120      C2125   1.451       .  S
C2121      C2122   1.414       .  A
C2121      C2128   1.451       .  S
C2122      C2123   1.420       .  A
C2123      C2124   1.412       .  A
C2123      C2126   1.449       .  S
C2124      C2127   1.452       .  S
C2125      N2132   1.157       .  T
C2126      N2131   1.156       .  T
C2127      N2129   1.157       .  T
C2128      N2130   1.157       .  T
C2133      C2134   1.412       .  A
C2133      C2138   1.417       .  A
C2134      C2135   1.414       .  A
C2134      C2139   1.451       .  S
C2135      C2136   1.416       .  A
C2135      C2142   1.449       .  S
C2136      C2137   1.411       .  A
C2137      C2138   1.411       .  A
C2137      C2140   1.449       .  S
C2138      C2141   1.452       .  S
C2139      N2146   1.157       .  T
C2140      N2145   1.156       .  T
C2141      N2143   1.157       .  T
C2142      N2144   1.157       .  T
C2147      C2148   1.407       .  A
C2147      C2152   1.411   1_554  A
C2148      C2149   1.414       .  A
C2148      C2153   1.452       .  S
C2149      C2150   1.420   1_554  A
C2149      C2156   1.449       .  S
C2150      C2151   1.414       .  A
C2151      C2152   1.412       .  A
C2151      C2154   1.451       .  S
C2152      C2155   1.449       .  S
C2153      N2160   1.157       .  T
C2154      N2159   1.157       .  T
C2155      N2157   1.157   1_655  T
C2156      N2158   1.157       .  T
