geometry optimzed in LAMMPS
_audit_creation_date              2020-11-30 
_audit_creation_method            'lammps2cif' 
_symmetry_space_group_name_H-M    'P1' 
_symmetry_Int_Tables_number       1 
_symmetry_cell_setting            triclinic 
loop_ 
_symmetry_equiv_pos_as_xyz 
  x,y,z 
_cell_length_a                    63.70757972 
_cell_length_b                    63.66905967275346 
_cell_length_c                    32.0971712750899 
_cell_angle_alpha                 89.52653916669166 
_cell_angle_beta                  90.70619236833446 
_cell_angle_gamma                 120.67785445378715 
loop_ 
_atom_site_label 
_atom_site_type_symbol 
_atom_site_fract_x 
_atom_site_fract_y 
_atom_site_fract_z 
_atom_site_charge 
C1          C  0.39906111  0.22384524  0.13018888     0.80500
N2          N  0.41409982  0.22132027  0.15817323    -0.77800
C3          C  0.41625266  0.20109205  0.15683433     0.82900
N4          N  0.40343330  0.18370326  0.12837635    -0.77700
C5          C  0.38832096  0.18544106  0.10089334     0.83000
N6          N  0.38597846  0.20564920  0.10148756    -0.79500
C7          C  0.19836962  0.75234592  0.37397190     0.80500
N8          N  0.17986164  0.74668355  0.40139252    -0.77800
C9          C  0.15814764  0.72533885  0.39720977     0.82900
N10         N  0.15521882  0.70974122  0.36669959    -0.77700
C11         C  0.17326121  0.71461918  0.34000624     0.83000
N12         N  0.19498762  0.73595274  0.34337154    -0.79500
C13         C  0.65819827  0.16691684  0.13221510     0.80500
N14         N  0.66177267  0.18351892  0.10179055    -0.77800
C15         C  0.68185710  0.20627336  0.10344454     0.82900
N16         N  0.69849785  0.21196335  0.13414312    -0.77700
C17         C  0.69560569  0.19562106  0.16376191     0.83000
N18         N  0.67538338  0.17287041  0.16300475    -0.79500
C19         C  0.44022463  0.68044960  0.39611646     0.80500
N20         N  0.42726570  0.68482384  0.36651656    -0.77800
C21         C  0.42609405  0.70553624  0.36862139     0.82900
N22         N  0.43841282  0.72194269  0.39877526    -0.77700
C23         C  0.45192023  0.71847195  0.42739729     0.83000
N24         N  0.45299208  0.69762355  0.42631828    -0.79500
C25         C  0.71686192  0.48287785  0.13765466     0.80500
N26         N  0.69953861  0.46648511  0.11056597    -0.77800
C27         C  0.67733317  0.46461146  0.10766383     0.82900
N28         N  0.67260903  0.47917151  0.13085154    -0.77700
C29         C  0.68934485  0.49561157  0.15722353     0.83000
N30         N  0.71142955  0.49723677  0.16148369    -0.79500
C31         C  0.13542846  0.44240367  0.39227202     0.80500
N32         N  0.15060264  0.45193139  0.42637521    -0.77800
C33         C  0.17111156  0.45036640  0.42944070     0.82900
N34         N  0.17604550  0.43905228  0.39951721    -0.77700
C35         C  0.16151008  0.42930489  0.36608683     0.83000
N36         N  0.14110099  0.43099996  0.36197540    -0.79500
Zr37       Zr  0.92034167  0.43671390  0.37908696     2.17500
O38         O  0.94703163  0.48091360  0.37430861    -0.51100
O39         O  0.95959318  0.43759030  0.38349782    -0.74300
O40         O  0.92639968  0.45760000  0.44790389    -0.81000
O41         O  0.90779798  0.42698719  0.25695618    -0.82800
O42         O  0.90127725  0.43144481  0.49772668    -0.78400
O43         O  0.92775628  0.45541178  0.30769981    -0.90000
O44         O  0.95173756  0.39931684  0.39765319    -0.76000
O45         O  0.91001313  0.40652942  0.43218863    -0.85500
O46         O  0.91765735  0.40214120  0.34452712    -0.85200
O47         O  0.88174601  0.42787457  0.40825447    -0.71900
O48         O  0.88825939  0.42309430  0.32814005    -0.84100
Zr49       Zr  0.83853032  0.35011787  0.37514269     2.26400
Zr50       Zr  0.87096807  0.39639491  0.46013175     2.06300
Zr51       Zr  0.88529948  0.38841273  0.29368033     2.10000
Zr52       Zr  0.90788915  0.37244123  0.39838014     1.78800
O53         O  0.86810937  0.38995586  0.22624037    -0.92900
O54         O  0.92136386  0.36916186  0.46826207    -0.40700
O55         O  0.87638332  0.35838049  0.34635078    -0.77300
O56         O  0.86924508  0.36181849  0.42815249    -0.96000
O57         O  0.84019945  0.38405631  0.40819888    -0.89300
O58         O  0.84730641  0.37954915  0.32178761    -0.92200
C59         C  0.96652951  0.42204694  0.39047286     1.01600
C60         C  0.92195513  0.44906047  0.26886922     1.14500
C61         C  0.91853591  0.45232849  0.48593968     1.05300
O62         O  0.87991100  0.38000572  0.52225706    -0.94300
O63         O  0.83116652  0.36437839  0.48709528    -0.90100
O64         O  0.81228342  0.33697661  0.43480655    -0.83200
C65         C  0.81297959  0.34478011  0.47168376     1.11900
O66         O  0.86207648  0.45700664  0.35487412    -0.96300
Zr67       Zr  0.85019990  0.41404814  0.35595199     1.88900
O68         O  0.80069701  0.34654127  0.35200717    -0.72900
O69         O  0.85214409  0.41601895  0.49670991    -0.52200
O70         O  0.82479078  0.42283519  0.40011452    -0.96900
O71         O  0.84651536  0.42681101  0.28578907    -0.54100
O72         O  0.80792879  0.38497976  0.34116987    -0.73500
C73         C  0.79395256  0.36172133  0.34204021     0.98900
O74         O  0.82335486  0.30718319  0.39077015    -0.62300
O75         O  0.91544032  0.38152536  0.26046507    -0.57100
O76         O  0.83110698  0.32479698  0.31545512    -0.93800
O77         O  0.85790649  0.34758464  0.26462373    -0.92200
O78         O  0.92226489  0.35137113  0.35466815    -0.92500
O79         O  0.89417761  0.33004759  0.41526328    -0.91300
C80         C  0.83996953  0.32756907  0.27893213     1.17700
H81         H  0.93253252  0.40617803  0.33029017     0.33700
H82         H  0.86435657  0.34872175  0.44839972     0.44500
H83         H  0.83513306  0.37339209  0.29965259     0.38100
H84         H  0.88334007  0.44231938  0.42090850     0.34500
H85         H  0.93539499  0.36682420  0.46382149     0.26300
H86         H  0.85642090  0.41600959  0.52647683     0.32300
H87         H  0.83219119  0.42531650  0.42824719     0.38200
H88         H  0.91757117  0.35324340  0.32597482     0.32600
H89         H  0.90682048  0.37122716  0.23597243     0.31500
H90         H  0.87471541  0.38308291  0.20622663     0.33200
H91         H  0.83089252  0.41330906  0.27470868     0.32200
H92         H  0.87827917  0.32056166  0.40060420     0.36200
H93         H  0.82858482  0.30686070  0.41984237     0.28900
H94         H  0.96068336  0.48502163  0.39397403     0.33100
H95         H  0.84787374  0.45742084  0.34296812     0.36000
H96         H  0.92747317  0.39756453  0.24848026     0.28600
H97         H  0.80537292  0.29935266  0.39197464     0.41500
H98         H  0.87594346  0.38729660  0.54580590     0.31500
H99         H  0.92871011  0.38574183  0.48026652     0.39100
H100        H  0.85918895  0.42600242  0.26952249     0.31000
H101        H  0.86136674  0.43342249  0.48832640     0.31000
H102        H  0.93783871  0.48793915  0.38685007     0.31300
Zr103      Zr  0.92997623  0.48437431  0.12845896     2.17500
O104        O  0.90141358  0.44049270  0.12377564    -0.51100
O105        O  0.89048242  0.48323423  0.13380286    -0.74300
O106        O  0.92445628  0.46313288  0.19758962    -0.81000
O107        O  0.94300101  0.49448942  0.00741360    -0.82800
O108        O  0.94975215  0.48919608  0.24756205    -0.78400
O109        O  0.92357102  0.46564077  0.05780073    -0.90000
O110        O  0.89833138  0.52139752  0.14871327    -0.76000
O111        O  0.94010655  0.51443009  0.18074049    -0.85500
O112        O  0.93199733  0.51871910  0.09297189    -0.85200
O113        O  0.96900480  0.49327389  0.15741648    -0.71900
O114        O  0.96243463  0.49945916  0.07843526    -0.84100
Zr115      Zr  0.01187503  0.57163637  0.12576147     2.26400
Zr116      Zr  0.97922863  0.52428776  0.20933662     2.06300
Zr117      Zr  0.96459724  0.53381432  0.04307098     2.10000
Zr118      Zr  0.94202042  0.54854021  0.14596863     1.78800
O119        O  0.97580442  0.53103825  0.97191219    -0.92900
O120        O  0.93190440  0.55485745  0.21595251    -0.40700
O121        O  0.97398381  0.56375458  0.09563540    -0.77300
O122        O  0.98077353  0.55909687  0.17708758    -0.96000
O123        O  0.01055108  0.53768396  0.15893080    -0.89300
O124        O  0.00277410  0.54266817  0.07212984    -0.92200
C125        C  0.88363982  0.49870054  0.14179455     1.01600
C126        C  0.92949666  0.47219355  0.01918984     1.14500
C127        C  0.93247240  0.46829851  0.23583360     1.05300
O128        O  0.96986464  0.54041462  0.27027237    -0.94300
O129        O  0.01858891  0.55534199  0.23851266    -0.90100
O130        O  0.03751536  0.58349367  0.18716997    -0.83200
C131        C  0.03673863  0.57496426  0.22373486     1.11900
O132        O  0.98667265  0.46563635  0.09227494    -0.96300
Zr133      Zr  0.00099150  0.50847667  0.10610561     1.88900
O134        O  0.05013904  0.57635467  0.10292619    -0.72900
O135        O  0.99840048  0.50483488  0.24706285    -0.52200
O136        O  0.02151201  0.49556452  0.15568614    -0.96900
O137        O  0.01142301  0.50098257  0.03705713    -0.54100
O138        O  0.04427376  0.53837950  0.09750578    -0.73500
C139        C  0.05801906  0.56178072  0.09649210     0.98900
O140        O  0.02540271  0.61410705  0.14144011    -0.62300
O141        O  0.93414824  0.54231539  0.01396755    -0.57100
O142        O  0.02222390  0.59701177  0.06545340    -0.93800
O143        O  0.99529935  0.57433836  0.01409536    -0.92200
O144        O  0.92619762  0.56571272  0.09495828    -0.92500
O145        O  0.95173857  0.59027579  0.15762729    -0.91300
C146        C  0.01411967  0.59406148  0.02809256     1.17700
H147        H  0.91685970  0.51437678  0.07882076     0.33700
H148        H  0.98548716  0.57192607  0.19746413     0.44500
H149        H  0.01506656  0.54916419  0.05073830     0.38100
H150        H  0.96763235  0.47882499  0.17002963     0.34500
H151        H  0.91455574  0.55029593  0.21431663     0.26300
H152        H  0.99425926  0.50480402  0.27671336     0.32300
H153        H  0.03482117  0.51088031  0.16800139     0.38200
H154        H  0.90827176  0.55462635  0.09449743     0.32600
H155        H  0.94352102  0.55685135  0.99603392     0.31500
H156        H  0.96834351  0.53845429  0.95446155     0.33200
H157        H  0.02776800  0.50287472  0.04046154     0.32200
H158        H  0.96960350  0.59957698  0.16251636     0.36200
H159        H  0.02128078  0.61417209  0.17105799     0.28900
H160        H  0.88868550  0.43691282  0.14466268     0.33100
H161        H  0.00125276  0.46397337  0.09508786     0.36000
H162        H  0.92455675  0.52878319  0.99419779     0.28600
H163        H  0.04346245  0.62265778  0.14105641     0.41500
H164        H  0.97540125  0.53452420  0.29424377     0.31500
H165        H  0.93181196  0.54181732  0.23308327     0.39100
H166        H  0.01428775  0.51514806  0.01980154     0.31000
H167        H  0.98935263  0.48743110  0.23877685     0.31000
H168        H  0.91038011  0.43271853  0.13495000     0.31300
Zr169      Zr  0.41537892  0.96402668  0.38194343     2.17500
O170        O  0.44035042  0.94512972  0.37882055    -0.51100
O171        O  0.37719273  0.92383962  0.38267479    -0.74300
O172        O  0.42416380  0.95367828  0.45348816    -0.81000
O173        O  0.42765372  0.98062825  0.26233915    -0.82800
O174        O  0.41894428  0.97634767  0.50249253    -0.78400
O175        O  0.42431223  0.95334433  0.31229030    -0.90000
O176        O  0.34652590  0.93083097  0.36610566    -0.76000
O177        O  0.38452253  0.96705737  0.41853198    -0.85500
O178        O  0.39294239  0.97193946  0.32978122    -0.85200
O179        O  0.43699425  0.99869062  0.42796028    -0.71900
O180        O  0.44305874  0.00165198  0.34618961    -0.84100
Zr181      Zr  0.41044946  0.04466818  0.37934257     2.26400
Zr182      Zr  0.40563878  0.00141821  0.46507295     2.06300
Zr183      Zr  0.41997668  0.01007472  0.29508839     2.10000
Zr184      Zr  0.36208568  0.97431848  0.36593393     1.78800
O185        O  0.45509246  0.02980779  0.24926973    -0.92900
O186        O  0.32898924  0.95688813  0.41612301    -0.40700
O187        O  0.38852848  0.01216829  0.33081286    -0.77300
O188        O  0.38168118  0.00766501  0.41386380    -0.96000
O189        O  0.43395894  0.03858193  0.43086409    -0.89300
O190        O  0.44144965  0.04285409  0.34250332    -0.92200
C191        C  0.35459424  0.91649544  0.37458300     1.01600
C192        C  0.42807392  0.96158717  0.27427430     1.14500
C193        C  0.42489568  0.96062847  0.49182134     1.05300
O194        O  0.36873839  0.97279318  0.50216493    -0.94300
O195        O  0.39541103  0.03160702  0.49270619    -0.90100
O196        O  0.40037243  0.05817074  0.44053601    -0.83200
C197        C  0.39511182  0.05043417  0.47784518     1.11900
O198        O  0.49645756  0.02653212  0.40819585    -0.96300
Zr199      Zr  0.46420108  0.03550519  0.39301260     1.88900
O200        O  0.44668453  0.08415918  0.39066814    -0.72900
O201        O  0.42496814  0.02044902  0.53116007    -0.52200
O202        O  0.48626184  0.05140211  0.45857539    -0.96900
O203        O  0.49421571  0.04851010  0.33767427    -0.54100
O204        O  0.47929553  0.07888816  0.39320809    -0.73500
C205        C  0.46969142  0.09230836  0.39272262     0.98900
O206        O  0.38050350  0.05736360  0.36919406    -0.62300
O207        O  0.38917113  0.99406807  0.23968817    -0.57100
O208        O  0.41706897  0.06751590  0.31665085    -0.93800
O209        O  0.42413130  0.04821248  0.26421019    -0.92200
O210        O  0.34224380  0.96014848  0.29817301    -0.92500
O211        O  0.33214225  0.98634819  0.35049675    -0.91300
C212        C  0.42268891  0.06627969  0.27913020     1.17700
H213        H  0.38549268  0.95878267  0.30993386     0.33700
H214        H  0.36941986  0.00963351  0.42683496     0.44500
H215        H  0.45207681  0.05774248  0.32789714     0.38100
H216        H  0.44811407  0.99703453  0.44663209     0.34500
H217        H  0.33338721  0.94774025  0.43599752     0.26300
H218        H  0.41554105  0.00797946  0.55263595     0.32300
H219        H  0.47577527  0.03943031  0.47992766     0.38200
H220        H  0.32510326  0.94771510  0.30448569     0.32600
H221        H  0.39177267  0.00855948  0.22373289     0.31500
H222        H  0.44827283  0.02437226  0.22088541     0.33200
H223        H  0.49023220  0.05817196  0.31829528     0.32200
H224        H  0.34032606  0.00376431  0.35856363     0.36200
H225        H  0.39005571  0.07535488  0.36624343     0.28900
H226        H  0.43111489  0.92947296  0.39408476     0.33100
H227        H  0.49002432  0.01391211  0.43034275     0.36000
H228        H  0.39432944  0.98546949  0.22052706     0.28600
H229        H  0.37313808  0.05122578  0.34131009     0.41500
H230        H  0.35762001  0.97922857  0.49806656     0.31500
H231        H  0.33091220  0.97092066  0.43235528     0.39100
H232        H  0.48973563  0.03342039  0.32205801     0.31000
H233        H  0.44111489  0.02171948  0.53103586     0.31000
H234        H  0.45481909  0.95544026  0.39656904     0.31300
Zr235      Zr  0.44884842  0.94956131  0.13394808     2.17500
O236        O  0.43168110  0.97604157  0.12840725    -0.51100
O237        O  0.48781026  0.98896148  0.13672725    -0.74300
O238        O  0.43681603  0.95685068  0.20361159    -0.81000
O239        O  0.44290671  0.93714022  0.01435170    -0.82800
O240        O  0.43425419  0.92967451  0.25277783    -0.78400
O241        O  0.43563133  0.95737819  0.06510673    -0.90000
O242        O  0.51807524  0.98083272  0.14864294    -0.76000
O243        O  0.46888855  0.93904021  0.18630251    -0.85500
O244        O  0.48047598  0.94735361  0.09798795    -0.85200
O245        O  0.41824662  0.91074299  0.16292746    -0.71900
O246        O  0.42954143  0.91760069  0.08342001    -0.84100
Zr247      Zr  0.45189782  0.86770103  0.12916578     2.26400
Zr248      Zr  0.43903124  0.89990801  0.21446601     2.06300
Zr249      Zr  0.46094149  0.91513884  0.04767706     2.10000
Zr250      Zr  0.50049947  0.93710469  0.15096256     1.78800
O251        O  0.44699315  0.90350964  0.97600381    -0.92900
O252        O  0.52043342  0.95203136  0.21844156    -0.40700
O253        O  0.48213853  0.90562825  0.09946342    -0.77300
O254        O  0.47165143  0.89846048  0.18144523    -0.96000
O255        O  0.41973928  0.86909883  0.16286566    -0.89300
O256        O  0.43132396  0.87677026  0.07611497    -0.92200
C257        C  0.51048382  0.99571942  0.14212399     1.01600
C258        C  0.43516212  0.95120500  0.02652649     1.14500
C259        C  0.43335915  0.94852451  0.24148935     1.05300
O260        O  0.46567714  0.90799214  0.27480574    -0.94300
O261        O  0.43157843  0.86055664  0.24186749    -0.90100
O262        O  0.43931178  0.84163486  0.18952576    -0.83200
C263        C  0.43263385  0.84247936  0.22659697     1.11900
O264        O  0.36795897  0.88951432  0.10330814    -0.96300
Zr265      Zr  0.39976218  0.87920130  0.11067368     1.88900
O266        O  0.41677511  0.82988965  0.10586102    -0.72900
O267        O  0.40032470  0.87948924  0.25147503    -0.52200
O268        O  0.36467297  0.85646225  0.15579823    -0.96900
O269        O  0.38534481  0.87671590  0.03906961    -0.54100
O270        O  0.38530696  0.83657780  0.09625248    -0.73500
C271        C  0.39460009  0.82284444  0.09566915     0.98900
O272        O  0.48102679  0.85474274  0.14627607    -0.62300
O273        O  0.50033360  0.94520924  0.01900678    -0.57100
O274        O  0.46739965  0.85897383  0.06807788    -0.93800
O275        O  0.47039997  0.88548616  0.01713523    -0.92200
O276        O  0.53433388  0.94987034  0.10311561    -0.92500
O277        O  0.52933570  0.92438762  0.17107883    -0.91300
C278        C  0.47219289  0.86736320  0.03087707     1.17700
H279        H  0.49133272  0.96224619  0.08349354     0.33700
H280        H  0.47976740  0.89365311  0.20129784     0.44500
H281        H  0.42511931  0.86476146  0.05434800     0.38100
H282        H  0.40562434  0.91243732  0.17598787     0.34500
H283        H  0.53564178  0.96760439  0.21235562     0.26300
H284        H  0.40442163  0.88518717  0.28066238     0.32300
H285        H  0.36722505  0.84387648  0.16924488     0.38200
H286        H  0.54026720  0.96726520  0.09693968     0.32600
H287        H  0.50378706  0.93613731  0.99790635     0.31500
H288        H  0.46152637  0.91377503  0.95874660     0.33200
H289        H  0.39512192  0.87190589  0.02226833     0.32200
H290        H  0.52150405  0.90716621  0.16196978     0.36200
H291        H  0.48597178  0.85968353  0.17559937     0.28900
H292        H  0.44211750  0.99022193  0.14648583     0.33100
H293        H  0.37095524  0.90096581  0.12638355     0.36000
H294        H  0.49696117  0.95641065  0.00257883     0.28600
H295        H  0.47136008  0.83666914  0.14702633     0.41500
H296        H  0.45927481  0.91408595  0.29662863     0.31500
H297        H  0.51009209  0.95693006  0.23332843     0.39100
H298        H  0.39131038  0.89382504  0.03058207     0.31000
H299        H  0.39097481  0.88692948  0.24063971     0.31000
H300        H  0.41575445  0.96717839  0.14267578     0.31300
C301        C  0.58558092  0.30953558  0.32833825     0.80500
N302        N  0.60914572  0.31564176  0.32402261    -0.77800
C303        C  0.61603904  0.29917517  0.33337199     0.82900
N304        N  0.59912797  0.27657143  0.34680442    -0.77700
C305        C  0.57554787  0.27044017  0.35137034     0.83000
N306        N  0.56898648  0.28706059  0.34253825    -0.79500
C307        C  0.26568494  0.60536445  0.09775063     0.80500
N308        N  0.24193920  0.59884702  0.09596804    -0.77800
C309        C  0.23544336  0.61510307  0.08389045     0.82900
N310        N  0.25278280  0.63807584  0.07337575    -0.77700
C311        C  0.27667466  0.64484973  0.07506993     0.83000
N312        N  0.28315463  0.62859846  0.08804172    -0.79500
Zr313      Zr  0.39935939  0.43621046  0.13492194     2.17500
O314        O  0.44371664  0.45621915  0.13243717    -0.51100
O315        O  0.39744385  0.39651020  0.13568563    -0.74300
O316        O  0.41889459  0.44550999  0.20585668    -0.81000
O317        O  0.39573798  0.44829160  0.01464296    -0.82800
O318        O  0.39139082  0.44039690  0.25563724    -0.78400
O319        O  0.41983314  0.44586025  0.06529414    -0.90000
O320        O  0.35801899  0.36670014  0.12501912    -0.76000
O321        O  0.36433787  0.40767085  0.17400995    -0.85500
O322        O  0.36760095  0.41410473  0.08463008    -0.85200
O323        O  0.38924599  0.46025470  0.17947104    -0.71900
O324        O  0.39254911  0.46532245  0.09763601    -0.84100
Zr325      Zr  0.31680711  0.43774681  0.13241017     2.26400
Zr326      Zr  0.35388264  0.43136561  0.21874183     2.06300
Zr327      Zr  0.35971708  0.44281031  0.04849320     2.10000
Zr328      Zr  0.33307002  0.38550256  0.12315026     1.78800
O329        O  0.37789908  0.47795620  0.00198369    -0.92900
O330        O  0.31370992  0.35446959  0.17718431    -0.40700
O331        O  0.32478106  0.41349002  0.08611247    -0.77300
O332        O  0.32220922  0.40791510  0.16902827    -0.96000
O333        O  0.34792540  0.46069432  0.18220014    -0.89300
O334        O  0.35106587  0.46666722  0.09383380    -0.92200
C335        C  0.38069064  0.37396771  0.13061387     1.01600
C336        C  0.41536255  0.44915864  0.02685300     1.14500
C337        C  0.41302019  0.44637956  0.24420385     1.05300
O338        O  0.33988507  0.39537223  0.26273413    -0.94300
O339        O  0.31479233  0.42458617  0.24786922    -0.90100
O340        O  0.29436397  0.43070817  0.19499930    -0.83200
C341        C  0.29635095  0.42556746  0.23283440     1.11900
O342        O  0.42586994  0.51814870  0.15270536    -0.96300
Zr343      Zr  0.38257565  0.48877788  0.14275371     1.88900
O344        O  0.31735585  0.47553907  0.14382440    -0.72900
O345        O  0.36131415  0.45852533  0.27729779    -0.52200
O346        O  0.39404919  0.51239739  0.20698014    -0.96900
O347        O  0.40032657  0.51801474  0.08565789    -0.54100
O348        O  0.35683506  0.50654453  0.14496221    -0.76500
C349        C  0.33380516  0.49824678  0.14560784     0.98900
O350        O  0.27336854  0.40872788  0.12202823    -0.62300
O351        O  0.34265107  0.41295428  0.99247131    -0.57100
O352        O  0.30233340  0.44567519  0.06837287    -0.93800
O353        O  0.32800323  0.44936125  0.01642464    -0.92200
O354        O  0.32414574  0.36427753  0.05663255    -0.92500
O355        O  0.29027534  0.35658057  0.10726919    -0.91300
C356        C  0.30953854  0.45013592  0.03059848     1.17700
H357        H  0.37228496  0.40570209  0.06532447     0.33700
H358        H  0.30736626  0.39644909  0.18303189     0.44500
H359        H  0.34799003  0.47789154  0.07864367     0.38100
H360        H  0.40255522  0.47112624  0.19759239     0.34500
H361        H  0.31206306  0.33946369  0.16496309     0.26300
H362        H  0.36191513  0.44953280  0.30217685     0.32300
H363        H  0.37862714  0.50598790  0.22252541     0.38200
H364        H  0.32686611  0.35046450  0.06147728     0.32600
H365        H  0.34994733  0.40257880  0.99652732     0.31500
H366        H  0.37520438  0.47089818  0.97368484     0.33200
H367        H  0.38645149  0.51481265  0.06723645     0.32200
H368        H  0.28102598  0.36136137  0.12558164     0.36200
H369        H  0.27209512  0.40169114  0.09406384     0.28900
H370        H  0.44807015  0.44604894  0.14980613     0.33100
H371        H  0.43428245  0.51152777  0.13637712     0.36000
H372        H  0.32525046  0.40224988  0.99972468     0.28600
H373        H  0.26965645  0.39506347  0.14130039     0.41500
H374        H  0.35223617  0.40050488  0.28535382     0.31500
H375        H  0.32640727  0.35928625  0.19911038     0.39100
H376        H  0.40965330  0.51240007  0.06939228     0.31000
H377        H  0.37827391  0.47223596  0.27389963     0.31000
H378        H  0.44992421  0.47164542  0.14811204     0.31300
Zr379      Zr  0.44851938  0.47284832  0.38434764     2.17500
O380        O  0.40428307  0.45403702  0.38042698    -0.51100
O381        O  0.44735514  0.51110497  0.38868363    -0.74300
O382        O  0.43002028  0.46016375  0.45523490    -0.81000
O383        O  0.45487052  0.46628562  0.26393719    -0.82800
O384        O  0.45579982  0.45931652  0.50411575    -0.78400
O385        O  0.42723521  0.45770656  0.31532967    -0.90000
O386        O  0.48592954  0.54198711  0.40026270    -0.76000
O387        O  0.47967773  0.49384584  0.43587805    -0.85500
O388        O  0.48225475  0.50538974  0.34766962    -0.85200
O389        O  0.45763549  0.44330544  0.41409457    -0.71900
O390        O  0.46190659  0.45464918  0.33411275    -0.84100
Zr391      Zr  0.53476012  0.47928442  0.37637336     2.26400
Zr392      Zr  0.49003551  0.46511200  0.46405938     2.06300
Zr393      Zr  0.49522016  0.48693784  0.29679226     2.10000
Zr394      Zr  0.51316452  0.52611324  0.39993559     1.78800
O395        O  0.49375784  0.47391154  0.22509437    -0.92900
O396        O  0.51913560  0.54358044  0.46950297    -0.40700
O397        O  0.52664977  0.50916989  0.34739849    -0.77300
O398        O  0.52397333  0.49815783  0.42957568    -0.96000
O399        O  0.50188521  0.44689419  0.41235378    -0.89300
O400        O  0.50404127  0.45766122  0.32504567    -0.92200
C401        C  0.46307928  0.53388227  0.39505310     1.01600
C402        C  0.43283187  0.45720094  0.27662744     1.14500
C403        C  0.43546454  0.45721380  0.49320699     1.05300
O404        O  0.50692191  0.48980250  0.52657816    -0.94300
O405        O  0.52305791  0.45970176  0.49052114    -0.90100
O406        O  0.54850806  0.46693094  0.43612636    -0.83200
C407        C  0.54178972  0.46077402  0.47375587     1.11900
O408        O  0.42842779  0.39316872  0.37102922    -0.96300
Zr409      Zr  0.47086425  0.42543806  0.36234989     1.88900
O410        O  0.53794798  0.44542571  0.35037035    -0.72900
O411        O  0.47256144  0.42564749  0.49916045    -0.52200
O412        O  0.46686351  0.39353821  0.40987344    -0.96900
O413        O  0.45264581  0.40627718  0.29566091    -0.54100
O414        O  0.49969203  0.41292674  0.34337111    -0.73500
C415        C  0.52295199  0.42308397  0.34064730     0.98900
O416        O  0.57787900  0.50688832  0.39284329    -0.62300
O417        O  0.50178755  0.52509304  0.26661377    -0.57100
O418        O  0.55887778  0.49520560  0.31525685    -0.93800
O419        O  0.53469395  0.49764288  0.26513842    -0.92200
O420        O  0.53094057  0.56209617  0.35535843    -0.92500
O421        O  0.55596689  0.55551284  0.41493854    -0.91300
C422        C  0.55491504  0.49975566  0.27816423     1.17700
H423        H  0.47778946  0.51599370  0.33372177     0.33700
H424        H  0.53723810  0.50641260  0.44919007     0.44500
H425        H  0.50941457  0.45164611  0.30258643     0.38100
H426        H  0.44337965  0.43040640  0.42773698     0.34500
H427        H  0.50525927  0.54616268  0.47381618     0.26300
H428        H  0.47324819  0.42938165  0.52920399     0.32300
H429        H  0.48149026  0.40135909  0.42820634     0.38200
H430        H  0.53414476  0.55652280  0.32877311     0.32600
H431        H  0.51920793  0.53406105  0.25868555     0.31500
H432        H  0.49981478  0.48888209  0.20798038     0.33200
H433        H  0.46523005  0.41618178  0.27478041     0.32200
H434        H  0.56360520  0.54565753  0.42130173     0.36200
H435        H  0.58276369  0.52188339  0.37637526     0.28900
H436        H  0.40026326  0.46331017  0.40015141     0.33100
H437        H  0.42708697  0.37845337  0.35811876     0.36000
H438        H  0.49276769  0.52035980  0.23974644     0.28600
H439        H  0.57827732  0.51208288  0.42196100     0.41500
H440        H  0.50252765  0.47780793  0.54950623     0.31500
H441        H  0.51603653  0.53011463  0.48877600     0.39100
H442        H  0.43958950  0.41009493  0.29046423     0.31000
H443        H  0.45496063  0.41682137  0.49192475     0.31000
H444        H  0.39774004  0.43773231  0.39341855     0.31300
C445        C  0.32275474  0.55017748  0.12108061    -0.11600
C446        C  0.30267877  0.54391597  0.14644919     0.11000
C447        C  0.29360930  0.52347202  0.17320629    -0.03400
C448        C  0.30539775  0.50990742  0.17389504    -0.06100
C449        C  0.32521649  0.51578522  0.14774972    -0.16900
C450        C  0.33433336  0.53647157  0.12113265     0.02000
C451        C  0.29057322  0.55821189  0.14082621     0.12000
C452        C  0.27106034  0.51546572  0.19943293     0.62600
H453        H  0.29865788  0.49398747  0.19384331     0.12000
C454        C  0.35543266  0.54360489  0.09164049     0.54700
H455        H  0.32888366  0.56570257  0.10034403     0.07800
C456        C  0.30072458  0.58198142  0.15733280    -0.06000
C457        C  0.29149598  0.59658561  0.14317577    -0.06800
C458        C  0.27255373  0.58798801  0.11355278    -0.16300
C459        C  0.26130044  0.56358704  0.09905753    -0.01900
C460        C  0.27078680  0.54913606  0.11292828    -0.09500
C461        C  0.32159369  0.59207474  0.18882258     0.64800
H462        H  0.29942346  0.61513004  0.15443327     0.10200
C463        C  0.24047754  0.55324760  0.06731188     0.63200
H464        H  0.26348090  0.53089091  0.10078962     0.07600
F465        F  0.37655325  0.55051391  0.11431491    -0.19900
F466        F  0.35967884  0.56304122  0.06620790    -0.16100
F467        F  0.35036186  0.52410629  0.06623855    -0.19600
F468        F  0.25102903  0.50855481  0.17373914    -0.23000
F469        F  0.27423388  0.53439963  0.22455660    -0.24400
F470        F  0.26614717  0.49582795  0.22484397    -0.18400
F471        F  0.23438741  0.53014604  0.05418242    -0.20900
F472        F  0.24717874  0.56828056  0.03263896    -0.22100
F473        F  0.21983568  0.55141467  0.08462871    -0.19300
F474        F  0.32672381  0.61446714  0.20426203    -0.19300
F475        F  0.34243706  0.59506114  0.17040974    -0.23200
F476        F  0.31561413  0.57620286  0.22211409    -0.24800
C477        C  0.53011556  0.37132944  0.29766432    -0.11600
C478        C  0.55366109  0.37867489  0.31186254     0.11000
C479        C  0.56873668  0.40237789  0.32794192    -0.03400
C480        C  0.55823134  0.41671208  0.33547494    -0.06100
C481        C  0.53345507  0.40821754  0.32611596    -0.16900
C482        C  0.51970140  0.38586504  0.30382608     0.02000
C483        C  0.56087965  0.36012127  0.31470937     0.12000
C484        C  0.59555105  0.41207236  0.33786220     0.62600
H485        H  0.56919581  0.43428768  0.35035593     0.12000
C486        C  0.49405670  0.37673122  0.28716456     0.54700
H487        H  0.51939059  0.35334351  0.28395379     0.07800
C488        C  0.55380971  0.34401036  0.34921709    -0.06000
C489        C  0.56292342  0.32827474  0.35250634    -0.06800
C490        C  0.57804917  0.32757899  0.32201290    -0.16300
C491        C  0.58414675  0.34275952  0.28633836    -0.01900
C492        C  0.57542803  0.35903761  0.28338803    -0.09500
C493        C  0.53651391  0.34314591  0.38228329     0.64800
H494        H  0.55821075  0.31619731  0.37916686     0.10200
C495        C  0.59951990  0.34171741  0.25160047     0.63200
H496        H  0.58018391  0.37130477  0.25699530     0.07600
F497        F  0.47763609  0.36780730  0.31962146    -0.19900
F498        F  0.48704737  0.35809348  0.25855514    -0.16100
F499        F  0.49297191  0.39545952  0.26706015    -0.19600
F500        F  0.60742705  0.41201956  0.30212396    -0.23000
F501        F  0.59788209  0.39753377  0.36760874    -0.24400
F502        F  0.60709736  0.43577271  0.35274354    -0.18400
F503        F  0.59886701  0.35411741  0.21643785    -0.20900
F504        F  0.59095967  0.31772520  0.24034500    -0.22100
F505        F  0.62350039  0.35231030  0.26496047    -0.19300
F506        F  0.53330343  0.32700319  0.41419065    -0.19300
F507        F  0.51390986  0.33566677  0.36455881    -0.23200
F508        F  0.54560134  0.36596426  0.39953989    -0.24800
C509        C  0.34368548  0.76400140  0.04739798    -0.11600
C510        C  0.34780544  0.74692717  0.06773142     0.11000
C511        C  0.36899816  0.75475669  0.09239868    -0.03400
C512        C  0.38393187  0.77977599  0.10037582    -0.06100
C513        C  0.37879526  0.79702940  0.08294606    -0.16900
C514        C  0.35920462  0.78915898  0.05375375     0.02000
C515        C  0.32838278  0.72105039  0.06667266     0.12000
C516        C  0.37547167  0.73666813  0.11068952     0.62600
H517        H  0.39943903  0.78594297  0.12127849     0.12000
C518        C  0.35469132  0.80681140  0.02857193     0.54700
H519        H  0.32762743  0.75738272  0.02765172     0.07800
C520        C  0.30848712  0.71207824  0.09433666    -0.06000
C521        C  0.29209855  0.68693500  0.09570100    -0.06800
C522        C  0.29505217  0.67076763  0.07060006    -0.16300
C523        C  0.31459639  0.67969081  0.04221812    -0.01900
C524        C  0.33086826  0.70504092  0.04020881    -0.09500
C525        C  0.30458720  0.72889890  0.12244984     0.64800
H526        H  0.27688429  0.67955393  0.11700711     0.10200
C527        C  0.31822339  0.66262376  0.01448572     0.63200
H528        H  0.34612942  0.71253750  0.01901807     0.07600
F529        F  0.34385840  0.81628849  0.05322216    -0.19900
F530        F  0.33945087  0.79538138  0.99472222    -0.16100
F531        F  0.37648612  0.82555500  0.01321618    -0.19600
F532        F  0.37871064  0.72411684  0.07886966    -0.23000
F533        F  0.35696594  0.72019094  0.13626908    -0.24400
F534        F  0.39688632  0.74819755  0.13384802    -0.18400
F535        F  0.33729621  0.67532418  0.98705023    -0.20900
F536        F  0.29723053  0.64821000  0.99141634    -0.22100
F537        F  0.32350310  0.64782908  0.03873216    -0.19300
F538        F  0.28474203  0.71599444  0.14833319    -0.19300
F539        F  0.30035934  0.74450456  0.09842316    -0.23200
F540        F  0.32494585  0.74247602  0.14733652    -0.24800
C541        C  0.52061586  0.15700682  0.37002821    -0.11600
C542        C  0.51337450  0.17030106  0.39428846     0.11000
C543        C  0.49204496  0.15817976  0.41840340    -0.03400
C544        C  0.47894002  0.13253842  0.41866728    -0.06100
C545        C  0.48604612  0.11904735  0.39412588    -0.16900
C546        C  0.50716747  0.13145565  0.36894077     0.02000
C547        C  0.52747619  0.19699976  0.38974087     0.12000
C548        C  0.48258985  0.17228293  0.44178155     0.62600
H549        H  0.46251767  0.12278900  0.43702759     0.12000
C550        C  0.51488584  0.11819413  0.33920133     0.54700
H551        H  0.53668403  0.16704284  0.35091098     0.07800
C552        C  0.55000144  0.21142974  0.41061493    -0.06000
C553        C  0.56452606  0.23595238  0.39877465    -0.06800
C554        C  0.55741488  0.24592505  0.36621971    -0.16300
C555        C  0.53426346  0.23167957  0.34666458    -0.01900
C556        C  0.51967988  0.20727256  0.35899827    -0.09500
C557        C  0.55905991  0.20069995  0.44383316     0.64800
H558        H  0.58203302  0.24735099  0.41386826     0.10200
C559        C  0.52528655  0.24161287  0.31185428     0.63200
H560        H  0.50237574  0.19562541  0.34359039     0.07600
F561        F  0.52216521  0.10427549  0.36141190    -0.19900
F562        F  0.53426010  0.13426751  0.31454039    -0.16100
F563        F  0.49563219  0.10332108  0.31298959    -0.19600
F564        F  0.47600904  0.18452921  0.41365838    -0.23000
F565        F  0.50040971  0.18907808  0.46827559    -0.24400
F566        F  0.46236633  0.15699733  0.46537914    -0.18400
F567        F  0.50352441  0.22367131  0.29452380    -0.20900
F568        F  0.54229977  0.25127780  0.28032092    -0.22100
F569        F  0.52134071  0.25948593  0.32739667    -0.19300
F570        F  0.58116243  0.21820565  0.46095966    -0.19300
F571        F  0.56222416  0.18267931  0.42668123    -0.23200
F572        F  0.54233921  0.19068145  0.47566284    -0.24800
C573        C  0.12775178  0.60387524  0.09222942    -0.11600
C574        C  0.13459886  0.58720621  0.08037696     0.11000
C575        C  0.11668729  0.56283705  0.07133011    -0.03400
C576        C  0.09200021  0.55586432  0.07468849    -0.06100
C577        C  0.08468585  0.57218691  0.08841387    -0.16900
C578        C  0.10312565  0.59701706  0.09661210     0.02000
C579        C  0.16083130  0.59544898  0.08088359     0.12000
C580        C  0.12373627  0.54406344  0.06019338     0.62600
H581        H  0.07821574  0.53713972  0.06794867     0.12000
C582        C  0.09761507  0.61642317  0.11098398     0.54700
H583        H  0.14217597  0.62234904  0.09911371     0.07800
C584        C  0.17573845  0.60640168  0.04569192    -0.06000
C585        C  0.20009466  0.61224840  0.04787769    -0.06800
C586        C  0.20985359  0.60832004  0.08432557    -0.16300
C587        C  0.19556571  0.59921675  0.12065233    -0.01900
C588        C  0.17096517  0.59267756  0.11814767    -0.09500
C589        C  0.16633431  0.61268098  0.00664309     0.64800
H590        H  0.21183919  0.62003750  0.02111627     0.10200
C591        C  0.20640784  0.59696916  0.16183294     0.63200
H592        H  0.15933957  0.58509370  0.14510322     0.07600
F593        F  0.08388558  0.61987150  0.08098179    -0.19900
F594        F  0.11866324  0.63878120  0.11762357    -0.16100
F595        F  0.08517264  0.60944126  0.14820708    -0.19600
F596        F  0.13574135  0.54086211  0.09359571    -0.23000
F597        F  0.13900320  0.55183254  0.02618390    -0.24400
F598        F  0.10355084  0.52162072  0.05045691    -0.18400
F599        F  0.19065048  0.59201262  0.19465763    -0.20900
F600        F  0.22783139  0.61859914  0.17065247    -0.22100
F601        F  0.21131541  0.57821604  0.15957527    -0.19300
F602        F  0.18416745  0.62330331  0.97645795    -0.19300
F603        F  0.15901879  0.62905939  0.01647994    -0.23200
F604        F  0.14675920  0.59195112  0.98977114    -0.24800
C605        C  0.67909914  0.30862517  0.35322809    -0.11600
C606        C  0.69199675  0.32491275  0.32116796     0.11000
C607        C  0.67983711  0.33082233  0.29050048    -0.03400
C608        C  0.65475672  0.32153354  0.29528597    -0.06100
C609        C  0.64181538  0.30617321  0.32895484    -0.16900
C610        C  0.65407774  0.29907205  0.35807518     0.02000
C611        C  0.71854524  0.33617762  0.32260080     0.12000
C612        C  0.69322920  0.34633422  0.25281586     0.62600
H613        H  0.64501478  0.32609964  0.27255602     0.12000
C614        C  0.64148352  0.28208855  0.39470730     0.54700
H615        H  0.68918941  0.30406627  0.37528128     0.07800
C616        C  0.73287984  0.35621399  0.34910857    -0.06000
C617        C  0.75766925  0.36427599  0.35325798    -0.06800
C618        C  0.76805670  0.35226549  0.33339138    -0.16300
C619        C  0.75361271  0.33196703  0.30720583    -0.01900
C620        C  0.72885581  0.32437824  0.30198223    -0.09500
C621        C  0.72188031  0.36835931  0.37422396     0.64800
H622        H  0.76902734  0.37950049  0.37363870     0.10200
C623        C  0.76409170  0.31855793  0.28455500     0.63200
H624        H  0.71706134  0.30860397  0.28298787     0.07600
F625        F  0.62897224  0.29040798  0.41769991    -0.19900
F626        F  0.65797909  0.28062060  0.42134519    -0.16100
F627        F  0.62551356  0.25881430  0.38016422    -0.19600
F628        F  0.70178430  0.33422252  0.22924901    -0.23000
F629        F  0.71279781  0.36854049  0.26525791    -0.24400
F630        F  0.67815716  0.35089815  0.22771516    -0.18400
F631        F  0.74720254  0.30123599  0.25741094    -0.20900
F632        F  0.77094200  0.30661693  0.31285543    -0.22100
F633        F  0.78415451  0.33497896  0.26168715    -0.19300
F634        F  0.73947346  0.38822577  0.39653687    -0.19300
F635        F  0.70528738  0.35187351  0.40235881    -0.23200
F636        F  0.71013370  0.37646292  0.34795331    -0.24800
C637        C  0.08542301  0.45918268  0.40488769    -0.11600
C638        C  0.06587552  0.44008785  0.38316539     0.11000
C639        C  0.06989575  0.42332308  0.36098455    -0.03400
C640        C  0.09282009  0.42497521  0.36456021    -0.06100
C641        C  0.11215968  0.44316482  0.38863937    -0.16900
C642        C  0.10857990  0.46124663  0.40784796     0.02000
C643        C  0.04103056  0.43708691  0.38678441     0.12000
C644        C  0.04999293  0.40370280  0.33371409     0.62600
H645        H  0.09551747  0.41148098  0.34918852     0.12000
C646        C  0.12869775  0.48259405  0.43197189     0.54700
H647        H  0.08207092  0.47207423  0.42093383     0.07800
C648        C  0.02506159  0.42296442  0.41920443    -0.06000
C649        C  0.00120882  0.41904424  0.41945490    -0.06800
C650        C  0.99311178  0.42994046  0.39003141    -0.16300
C651        C  0.00985477  0.44584964  0.35955270    -0.01900
C652        C  0.03347738  0.44881607  0.35812995    -0.09500
C653        C  0.03359451  0.41307852  0.45467661     0.64800
H654        H  0.98862946  0.40755935  0.44334621     0.10200
C655        C  0.00274712  0.45912867  0.32804247     0.63200
H656        H  0.04624876  0.46019999  0.33439101     0.07600
F657        F  0.13244233  0.47439933  0.46978845    -0.19900
F658        F  0.12277270  0.50028223  0.43996835    -0.16100
F659        F  0.15007547  0.49358845  0.40936323    -0.19600
F660        F  0.04203749  0.41440783  0.30483503    -0.23000
F661        F  0.03049363  0.38748213  0.35782255    -0.24400
F662        F  0.05827113  0.39062382  0.31212100    -0.18400
F663        F  0.02155588  0.47325455  0.30090568    -0.20900
F664        F  0.99697524  0.47452519  0.34852094    -0.22100
F665        F  0.98282240  0.44240877  0.30476222    -0.19300
F666        F  0.01471369  0.39821170  0.48117111    -0.19300
F667        F  0.05134676  0.43243040  0.47761504    -0.23200
F668        F  0.04323199  0.39954823  0.43953900    -0.24800
C669        C  0.25749844  0.44141043  0.47042902    -0.11600
C670        C  0.25224145  0.45546701  0.49760383     0.11000
C671        C  0.27770340  0.48447236  0.00576315    -0.03400
C672        C  0.29447698  0.47824755  0.02109821    -0.06100
C673        C  0.29638353  0.45896893  0.00430454    -0.16900
C674        C  0.28241589  0.44661291  0.96861116     0.02000
C675        C  0.23116526  0.45869908  0.48787078     0.12000
C676        C  0.27645799  0.50472179  0.02815245     0.62600
H677        H  0.30532472  0.48771903  0.04839137     0.12000
C678        C  0.28208551  0.42144939  0.45046816     0.54700
H679        H  0.24629537  0.43378947  0.44274432     0.07800
C680        C  0.23355897  0.47825017  0.46300892    -0.06000
C681        C  0.21234313  0.47882767  0.45204405    -0.06800
C682        C  0.18902452  0.45992989  0.46385191    -0.16300
C683        C  0.18734172  0.44298120  0.49428229    -0.01900
C684        C  0.20835062  0.44201480  0.50471339    -0.09500
C685        C  0.25819748  0.49742012  0.44613737     0.64800
H686        H  0.21346491  0.49185822  0.42893623     0.10200
C687        C  0.16286675  0.42286676  0.50953830     0.63200
H688        H  0.20683762  0.42759968  0.52495255     0.07600
F689        F  0.30566834  0.43543418  0.43587512    -0.19900
F690        F  0.26629565  0.41292372  0.41660425    -0.16100
F691        F  0.27810044  0.40760584  0.97775070    -0.19600
F692        F  0.27029914  0.49797511  0.06926109    -0.23000
F693        F  0.25966877  0.51000272  0.01104817    -0.24400
F694        F  0.29914568  0.52579367  0.02691883    -0.18400
F695        F  0.15458741  0.40268714  0.48409005    -0.20900
F696        F  0.14600212  0.43044286  0.50913376    -0.22100
F697        F  0.16491522  0.41638141  0.54999839    -0.19300
F698        F  0.25669511  0.51507769  0.42306449    -0.19300
F699        F  0.26723716  0.48646504  0.42075282    -0.23200
F700        F  0.27437425  0.50891506  0.47874999    -0.24800
C701        C  0.19960138  0.42695320  0.28176708    -0.11600
C702        C  0.20767627  0.41264266  0.30210544     0.11000
C703        C  0.19520787  0.39894622  0.33784218    -0.03400
C704        C  0.17622364  0.40154077  0.35360937    -0.06100
C705        C  0.16983480  0.41783964  0.33591740    -0.16900
C706        C  0.18065625  0.42968066  0.29806778     0.02000
C707        C  0.23028670  0.41402665  0.28696210     0.12000
C708        C  0.20196140  0.38259459  0.36218909     0.62600
H709        H  0.16805348  0.39272608  0.38296073     0.12000
C710        C  0.17287157  0.44586036  0.27617853     0.54700
H711        H  0.20913260  0.43697840  0.25410157     0.07800
C712        C  0.22977657  0.39935501  0.25382799    -0.06000
C713        C  0.25189315  0.40198955  0.24038390    -0.06800
C714        C  0.27451221  0.41921819  0.25817152    -0.16300
C715        C  0.27489477  0.43312546  0.29267835    -0.01900
C716        C  0.25261680  0.43026509  0.30658588    -0.09500
C717        C  0.20602131  0.38162337  0.23191956     0.64800
H718        H  0.25185827  0.39153372  0.21390868     0.10200
C719        C  0.29863816  0.45116715  0.31396858     0.63200
H720        H  0.25245278  0.44107480  0.33233194     0.07600
F721        F  0.18542821  0.45541337  0.23942249    -0.19900
F722        F  0.17711885  0.46513233  0.30152954    -0.16100
F723        F  0.14822291  0.43221479  0.26672211    -0.19600
F724        F  0.21114666  0.39280706  0.40086934    -0.23000
F725        F  0.21908232  0.37903532  0.34259112    -0.24400
F726        F  0.18126874  0.35992806  0.36785891    -0.18400
F727        F  0.29484430  0.46210195  0.34788426    -0.20900
F728        F  0.31355665  0.46927000  0.28619317    -0.22100
F729        F  0.31025895  0.43909034  0.32804860    -0.19300
F730        F  0.20929442  0.36788310  0.20231826    -0.19300
F731        F  0.19660216  0.39443589  0.21210354    -0.23200
F732        F  0.18932034  0.36574300  0.26058929    -0.24800
C733        C  0.81886198  0.47866283  0.17647160    -0.11600
C734        C  0.80991879  0.48526136  0.14152468     0.11000
C735        C  0.82467249  0.49440875  0.10555754    -0.03400
C736        C  0.84806862  0.49700670  0.10603982    -0.06100
C737        C  0.85721474  0.49086078  0.14119450    -0.16900
C738        C  0.84238265  0.48143804  0.17692657     0.02000
C739        C  0.78566952  0.48378276  0.14381534     0.12000
C740        C  0.81582688  0.50183293  0.06707954     0.62600
H741        H  0.85985633  0.50474811  0.07932480     0.12000
C742        C  0.85196556  0.47536206  0.21580568     0.54700
H743        H  0.80755291  0.47203903  0.20391748     0.07800
C744        C  0.76335368  0.46192194  0.13586306    -0.06000
C745        C  0.74151753  0.46255734  0.13438061    -0.06800
C746        C  0.74103808  0.48413603  0.14162340    -0.16300
C747        C  0.76347331  0.50593978  0.15104548    -0.01900
C748        C  0.78528988  0.50519194  0.15228527    -0.09500
C749        C  0.76261560  0.43793502  0.12971581     0.64800
H750        H  0.72444188  0.44590925  0.12789907     0.10200
C751        C  0.76484854  0.53016829  0.15854714     0.63200
H752        H  0.80253817  0.52159198  0.15910324     0.07600
F753        F  0.83448245  0.46527177  0.24659360    -0.19900
F754        F  0.87186751  0.49639856  0.23136142    -0.16100
F755        F  0.85906424  0.45877076  0.20616097    -0.19600
F756        F  0.81202966  0.52075953  0.07662933    -0.23000
F757        F  0.79417045  0.48221243  0.05274417    -0.24400
F758        F  0.83256267  0.50960838  0.03511181    -0.18400
F759        F  0.75367115  0.52922816  0.19574215    -0.20900
F760        F  0.75350371  0.53517583  0.12617066    -0.22100
F761        F  0.78872371  0.54938812  0.16102004    -0.19300
F762        F  0.73920498  0.41888306  0.12138123    -0.19300
F763        F  0.77091372  0.43220060  0.16554312    -0.23200
F764        F  0.77728136  0.43981121  0.09682151    -0.24800
C765        C  0.65736453  0.52959787  0.17544811    -0.11600
C766        C  0.64423734  0.51725840  0.21113046     0.11000
C767        C  0.65160790  0.50318104  0.23491379    -0.03400
C768        C  0.67039400  0.49991035  0.21969963    -0.06100
C769        C  0.68155157  0.50993017  0.18150265    -0.16900
C770        C  0.67614684  0.52626078  0.16035862     0.02000
C771        C  0.62104925  0.51659678  0.22026689     0.12000
C772        C  0.63855582  0.49027066  0.27472596     0.62600
H773        H  0.67448003  0.48717196  0.23504434     0.12000
C774        C  0.68958827  0.53913404  0.12084771     0.54700
H775        H  0.65172460  0.54053925  0.15797762     0.07800
C776        C  0.62020281  0.53434863  0.24517996    -0.06000
C777        C  0.59747230  0.52928502  0.26050670    -0.06800
C778        C  0.57573477  0.50774902  0.24984778    -0.16300
C779        C  0.57632225  0.49162894  0.22046266    -0.01900
C780        C  0.59914778  0.49630272  0.20622986    -0.09500
C781        C  0.64312254  0.55836455  0.25549943     0.64800
H782        H  0.59659129  0.54153795  0.28269789     0.10200
C783        C  0.55304634  0.46925002  0.20541891     0.63200
H784        H  0.60019940  0.48342404  0.18577961     0.07600
F785        F  0.71446112  0.55129909  0.12856243    -0.19900
F786        F  0.68349425  0.55605472  0.10727697    -0.16100
F787        F  0.68405786  0.52244543  0.08919490    -0.19600
F788        F  0.61473805  0.47243734  0.26578425    -0.23000
F789        F  0.63849170  0.50688050  0.30209263    -0.24400
F790        F  0.64984569  0.47920402  0.29453686    -0.18400
F791        F  0.55770820  0.45610608  0.17659225    -0.20900
F792        F  0.53816046  0.47653730  0.18656450    -0.22100
F793        F  0.54087293  0.45397182  0.23857066    -0.19300
F794        F  0.63825872  0.57277920  0.28101783    -0.19300
F795        F  0.65308776  0.57111730  0.21900644    -0.23200
F796        F  0.66003890  0.55427997  0.27553993    -0.24800
C797        C  0.58827813  0.45751537  0.05003429    -0.11600
C798        C  0.59092710  0.43894122  0.03214574     0.11000
C799        C  0.57445695  0.42731072  0.49440854    -0.03400
C800        C  0.55642515  0.43257506  0.48264078    -0.06100
C801        C  0.55655126  0.45325123  0.49747897    -0.16900
C802        C  0.57444131  0.46876676  0.52659425     0.02000
C803        C  0.61317644  0.43828208  0.04388950     0.12000
C804        C  0.57417576  0.40627551  0.47216535     0.62600
H805        H  0.54308468  0.42139477  0.45901873     0.12000
C806        C  0.57675791  0.49275223  0.53945004     0.54700
H807        H  0.60116360  0.46869249  0.07409854     0.07800
C808        C  0.63532821  0.45232869  0.02194322    -0.06000
C809        C  0.65717231  0.45598102  0.04017629    -0.06800
C810        C  0.65739903  0.44734112  0.08036643    -0.16300
C811        C  0.63499030  0.43069522  0.09946146    -0.01900
C812        C  0.61311787  0.42668022  0.08120315    -0.09500
C813        C  0.63920933  0.47506268  0.47930582     0.64800
H814        H  0.67451321  0.46881469  0.02622493     0.10200
C815        C  0.63386834  0.41912519  0.14148905     0.63200
H816        H  0.59608524  0.41576940  0.09760137     0.07600
F817        F  0.58047865  0.50713039  0.50458845    -0.19900
F818        F  0.58655754  0.49559181  0.08528182    -0.16100
F819        F  0.55564730  0.48833186  0.55891396    -0.19600
F820        F  0.55074239  0.38073331  0.99206523    -0.23000
F821        F  0.59119991  0.40079749  0.48729629    -0.24400
F822        F  0.57875732  0.41218158  0.43045831    -0.18400
F823        F  0.62587997  0.42896223  0.17130952    -0.20900
F824        F  0.65636298  0.42270706  0.15382886    -0.22100
F825        F  0.61770109  0.39423932  0.13918111    -0.19300
F826        F  0.66205823  0.48664339  0.46131947    -0.19300
F827        F  0.63528075  0.49278160  0.49566347    -0.23200
F828        F  0.62210487  0.46264527  0.44824668    -0.24800
C829        C  0.42956658  0.56998593  0.37960611    -0.11600
C830        C  0.44738119  0.59303249  0.39461056     0.11000
C831        C  0.46907939  0.59596575  0.41255028    -0.03400
C832        C  0.47275964  0.57598206  0.41284663    -0.06100
C833        C  0.45555575  0.55289741  0.39615369    -0.16900
C834        C  0.43316682  0.54975912  0.37987563     0.02000
C835        C  0.44292812  0.61390825  0.39205108     0.12000
C836        C  0.48829703  0.62015963  0.43166114     0.62600
H837        H  0.48950940  0.57848483  0.42640581     0.12000
C838        C  0.41333847  0.52567096  0.36172211     0.54700
H839        H  0.41286586  0.56813739  0.36699479     0.07800
C840        C  0.44918029  0.62926077  0.35649449    -0.06000
C841        C  0.44771012  0.65065371  0.35868465    -0.06800
C842        C  0.44031876  0.65706170  0.39520175    -0.16300
C843        C  0.43214052  0.64056448  0.42932650    -0.01900
C844        C  0.43368221  0.61928262  0.42719269    -0.09500
C845        C  0.45754585  0.62310968  0.31667412     0.64800
H846        H  0.45286021  0.66286197  0.33215259     0.10200
C847        C  0.42158196  0.64527287  0.46775259     0.63200
H848        H  0.42845010  0.60701530  0.45366396     0.07600
F849        F  0.42239090  0.51944563  0.32804821    -0.19900
F850        F  0.39329735  0.52690936  0.34803941    -0.16100
F851        F  0.40527307  0.50753786  0.39169761    -0.19600
F852        F  0.47852930  0.62564848  0.46516550    -0.23000
F853        F  0.49611240  0.63870722  0.40252232    -0.24400
F854        F  0.50855016  0.61945922  0.44581859    -0.18400
F855        F  0.40404731  0.65096080  0.45626042    -0.20900
F856        F  0.43999848  0.66444575  0.48991817    -0.22100
F857        F  0.41067441  0.62505511  0.49367771    -0.19300
F858        F  0.46309458  0.64055858  0.28602322    -0.19300
F859        F  0.43924166  0.60089069  0.30151126    -0.23200
F860        F  0.47817256  0.62167817  0.32441377    -0.24800
C861        C  0.46171468  0.76505754  0.50537636    -0.11600
C862        C  0.47655619  0.78577492  0.48128357     0.11000
C863        C  0.48945498  0.78399803  0.44737297    -0.03400
C864        C  0.48455003  0.76066027  0.43541814    -0.06100
C865        C  0.46654695  0.73933853  0.45544775    -0.16900
C866        C  0.45618255  0.74166198  0.49266843     0.02000
C867        C  0.47590340  0.80832156  0.48946772     0.12000
C868        C  0.50678543  0.80648590  0.42225832     0.62600
H869        H  0.49226827  0.75868239  0.40685648     0.12000
C870        C  0.43831519  0.71945074  0.51754323     0.54700
H871        H  0.47125334  0.77623264  0.02596598     0.07800
C872        C  0.46441876  0.81516625  0.96724653    -0.06000
C873        C  0.46144509  0.83450456  0.98067523    -0.06800
C874        C  0.47990077  0.85433393  0.00287958    -0.16300
C875        C  0.50289008  0.85620165  0.00837358    -0.01900
C876        C  0.49433471  0.82660895  0.51413725    -0.09500
C877        C  0.43611959  0.79176708  0.44728524     0.64800
H878        H  0.44390938  0.83325545  0.97701476     0.10200
C879        C  0.52481887  0.87839421  0.02739186     0.63200
H880        H  0.50918545  0.82434805  0.52538772     0.07600
F881        F  0.41769718  0.70471747  0.49388761    -0.19900
F882        F  0.43108112  0.72590419  0.55340310    -0.16100
F883        F  0.44937273  0.70643434  0.52920631    -0.19600
F884        F  0.52494203  0.82350465  0.44807908    -0.23000
F885        F  0.49424286  0.81677030  0.40437624    -0.24400
F886        F  0.51779246  0.80096840  0.39072890    -0.18400
F887        F  0.53044797  0.87213796  0.06550050    -0.20900
F888        F  0.52092890  0.89766322  0.03301889    -0.22100
F889        F  0.53631735  0.87364033  0.53183711    -0.19300
F890        F  0.42553682  0.79857925  0.93242896    -0.19300
F891        F  0.43334705  0.77336803  0.96981518    -0.23200
F892        F  0.44552722  0.78561351  0.41408501    -0.24800
C893        C  0.43200088  0.79623006  0.30227957    -0.11600
C894        C  0.41443375  0.77454830  0.28278382     0.11000
C895        C  0.39970122  0.77538947  0.25040058    -0.03400
C896        C  0.40553038  0.79829791  0.23435129    -0.06100
C897        C  0.42453029  0.82009135  0.25144667    -0.16900
C898        C  0.43717445  0.81921636  0.28734932     0.02000
C899        C  0.41238864  0.75139916  0.29686311     0.12000
C900        C  0.37781556  0.75231368  0.23348090     0.62600
H901        H  0.39562824  0.79941788  0.20754796     0.12000
C902        C  0.45669771  0.84228265  0.30849411     0.54700
H903        H  0.44229627  0.79496298  0.32829939     0.07800
C904        C  0.42774615  0.74329158  0.28112040    -0.06000
C905        C  0.42770313  0.72338999  0.30075988    -0.06800
C906        C  0.41420153  0.71287566  0.33705283    -0.16300
C907        C  0.39750242  0.71985749  0.35048042    -0.01900
C908        C  0.39688109  0.73904999  0.33005924    -0.09500
C909        C  0.44585209  0.75717078  0.24663589     0.64800
H910        H  0.44090077  0.71838674  0.29167766     0.10200
C911        C  0.38185841  0.70931199  0.38887823     0.63200
H912        H  0.38533691  0.74553935  0.34193869     0.07600
F913        F  0.47569319  0.85554368  0.28128511    -0.19900
F914        F  0.46600000  0.83715236  0.34383848    -0.16100
F915        F  0.44690801  0.85629878  0.32041714    -0.19600
F916        F  0.36123192  0.74064345  0.26509526    -0.23000
F917        F  0.38490513  0.73668630  0.21817412    -0.24400
F918        F  0.36616581  0.75740402  0.20173316    -0.18400
F919        F  0.39027951  0.72693153  0.41967276    -0.20900
F920        F  0.38199425  0.68901600  0.40421865    -0.22100
F921        F  0.35799285  0.70240402  0.37900875    -0.19300
F922        F  0.45819720  0.74559094  0.23453500    -0.19300
F923        F  0.46289851  0.78031590  0.26041638    -0.23200
F924        F  0.43387688  0.75919804  0.21204630    -0.24800
C925        C  0.55149052  0.06234389  0.10681630    -0.11600
C926        C  0.57173588  0.06989191  0.13363012     0.11000
C927        C  0.57091825  0.05349211  0.16458036    -0.03400
C928        C  0.55000546  0.03004217  0.16730524    -0.06100
C929        C  0.52989956  0.02213448  0.14005498    -0.16900
C930        C  0.53072425  0.03848867  0.10879864     0.02000
C931        C  0.59333763  0.09527184  0.12986159     0.12000
C932        C  0.59211910  0.06067759  0.19468903     0.62600
H933        H  0.54934284  0.01736614  0.19069694     0.12000
C934        C  0.51069596  0.03032265  0.07591520     0.54700
H935        H  0.55234840  0.07519446  0.08361849     0.07800
C936        C  0.61251933  0.10151170  0.10125601    -0.06000
C937        C  0.63357099  0.12504722  0.10318588    -0.06800
C938        C  0.63562491  0.14255052  0.13173956    -0.16300
C939        C  0.61576500  0.13701625  0.15793295    -0.01900
C940        C  0.59495519  0.11333964  0.15681465    -0.09500
C941        C  0.61061660  0.08363236  0.06835293     0.64800
H942        H  0.64866530  0.13002869  0.08236290     0.10200
C943        C  0.61671841  0.15626718  0.18669544     0.63200
H944        H  0.57990721  0.10856235  0.17763318     0.07600
F945        F  0.50804925  0.01010972  0.05522941    -0.19900
F946        F  0.51600350  0.04839346  0.04662060    -0.16100
F947        F  0.48882858  0.02443075  0.09427095    -0.19600
F948        F  0.59568814  0.08014656  0.21874376    -0.23000
F949        F  0.61318635  0.06728675  0.17287116    -0.24400
F950        F  0.58792202  0.04171563  0.22131082    -0.18400
F951        F  0.62174201  0.17685301  0.16394287    -0.20900
F952        F  0.63485045  0.16252338  0.21637574    -0.22100
F953        F  0.59482488  0.14806656  0.20695792    -0.19300
F954        F  0.63110368  0.09357513  0.04340978    -0.19300
F955        F  0.59060311  0.07734173  0.04294435    -0.23200
F956        F  0.60803400  0.06281217  0.08698399    -0.24800
C957        C  0.80431773  0.26135654  0.25426504    -0.11600
C958        C  0.78722756  0.26108417  0.22606904     0.11000
C959        C  0.79150193  0.28331045  0.20777703    -0.03400
C960        C  0.81184079  0.30541390  0.22130457    -0.06100
C961        C  0.82759880  0.30570899  0.25243487    -0.16900
C962        C  0.82496012  0.28338455  0.26673435     0.02000
C963        C  0.76367271  0.23797696  0.21946571     0.12000
C964        C  0.77404120  0.28367683  0.17542628     0.62600
H965        H  0.81415959  0.32267075  0.21072527     0.12000
C966        C  0.84283161  0.28217087  0.29691675     0.54700
H967        H  0.80106896  0.24432311  0.26786609     0.07800
C968        C  0.76061687  0.22049178  0.18943102    -0.06000
C969        C  0.73672479  0.20315796  0.17649167    -0.06800
C970        C  0.71629955  0.20308177  0.19276005    -0.16300
C971        C  0.71941765  0.21821101  0.22710436    -0.01900
C972        C  0.74324723  0.23514341  0.24065883    -0.09500
C973        C  0.78237097  0.22112048  0.16931179     0.64800
H974        H  0.73400312  0.19147551  0.15013629     0.10200
C975        C  0.69769279  0.21756444  0.24727528     0.63200
H976        H  0.74614195  0.24805262  0.26503640     0.07600
F977        F  0.84938465  0.26600576  0.28198826    -0.19900
F978        F  0.83188018  0.27398886  0.33523339    -0.16100
F979        F  0.86399622  0.30457551  0.30206136    -0.19600
F980        F  0.75135318  0.27543607  0.19252798    -0.23000
F981        F  0.77156559  0.26867276  0.14260778    -0.24400
F982        F  0.78232053  0.30693767  0.15990271    -0.18400
F983        F  0.70464017  0.23327023  0.28095123    -0.20900
F984        F  0.68175367  0.19415205  0.26127738    -0.22100
F985        F  0.68572812  0.22429953  0.21875807    -0.19300
F986        F  0.77523265  0.20100535  0.14406893    -0.19300
F987        F  0.79787542  0.22101066  0.19970499    -0.23200
F988        F  0.79496100  0.24195859  0.14529209    -0.24800
C989        C  0.71156459  0.26857745  0.06285324    -0.11600
C990        C  0.72769629  0.26695525  0.03561756     0.11000
C991        C  0.72282212  0.24371685  0.02212629    -0.03400
C992        C  0.70247390  0.22271156  0.03842508    -0.06100
C993        C  0.68854015  0.22443633  0.07016009    -0.16900
C994        C  0.69186362  0.24753555  0.08021186     0.02000
C995        C  0.75045530  0.28966813  0.02399018     0.12000
C996        C  0.74037071  0.24101725  0.99410885     0.62600
H997        H  0.69971388  0.20484551  0.03144834     0.12000
C998        C  0.67604548  0.25069620  0.11140995     0.54700
H999        H  0.71517441  0.28642047  0.07245726     0.07800
C1000       C  0.74604392  0.30347957  0.49490655    -0.06000
C1001       C  0.76807371  0.32238674  0.47829876    -0.06800
C1002       C  0.79087114  0.32937031  0.49684744    -0.16300
C1003       C  0.79486051  0.31519994  0.03377997    -0.01900
C1004       C  0.77184597  0.29629588  0.04707193    -0.09500
C1005       C  0.72176435  0.29751239  0.47532807     0.64800
H1006       H  0.76775731  0.33155913  0.44991149     0.10200
C1007       C  0.81788400  0.31996010  0.05659558     0.63200
H1008       H  0.77050843  0.28536453  0.07390540     0.07600
F1009       F  0.66657551  0.26389539  0.09316758    -0.19900
F1010       F  0.69003144  0.26333558  0.14571794    -0.16100
F1011       F  0.65669916  0.22856916  0.12462071    -0.19600
F1012       F  0.76261721  0.24999796  0.01424142    -0.23000
F1013       F  0.73502758  0.25217242  0.46394897    -0.24400
F1014       F  0.73180283  0.21684312  0.98410034    -0.18400
F1015       F  0.83130309  0.34416738  0.06856689    -0.20900
F1016       F  0.83172470  0.32421179  0.52956277    -0.22100
F1017       F  0.81269857  0.30566183  0.09203933    -0.19300
F1018       F  0.72490759  0.31073896  0.43909985    -0.19300
F1019       F  0.70900551  0.30316047  0.50318876    -0.23200
F1020       F  0.70792691  0.27299517  0.46556022    -0.24800
C1021       C  0.24817110  0.81969837  0.38990426    -0.11600
C1022       C  0.26914198  0.81927820  0.37876974     0.11000
C1023       C  0.26707396  0.79681865  0.36787084    -0.03400
C1024       C  0.24373401  0.77547366  0.36747512    -0.06100
C1025       C  0.22242005  0.77582911  0.37754786    -0.16900
C1026       C  0.22473139  0.79855870  0.38871589     0.02000
C1027       C  0.29261391  0.84310208  0.37571059     0.12000
C1028       C  0.28949562  0.79546822  0.35696084     0.62600
H1029       H  0.24199396  0.75818614  0.35930737     0.12000
C1030       C  0.20279702  0.80115635  0.39767668     0.54700
H1031       H  0.25034112  0.83713321  0.39840632     0.07800
C1032       C  0.29796034  0.85829211  0.34020815    -0.06000
C1033       C  0.31943947  0.88139015  0.34017751    -0.06800
C1034       C  0.33576737  0.88989120  0.37424245    -0.16300
C1035       C  0.33106102  0.87413714  0.40892401    -0.01900
C1036       C  0.30923221  0.85108031  0.40933436    -0.09500
C1037       C  0.28058737  0.85048486  0.30299250     0.64800
H1038       H  0.32325404  0.89354724  0.31387339     0.10200
C1039       C  0.34890923  0.88156273  0.44518157     0.63200
H1040       H  0.30480149  0.83913902  0.43611388     0.07600
F1041       F  0.20908848  0.82542711  0.39934783    -0.19900
F1042       F  0.19295344  0.79053714  0.43567080    -0.16100
F1043       F  0.18536071  0.79011798  0.36657399    -0.19600
F1044       F  0.30450242  0.80126209  0.39165109    -0.23000
F1045       F  0.30233148  0.81173836  0.32534145    -0.24400
F1046       F  0.28336695  0.77236410  0.34376201    -0.18400
F1047       F  0.34039376  0.86397721  0.47626605    -0.20900
F1048       F  0.35294715  0.90318128  0.46237184    -0.22100
F1049       F  0.37074628  0.88467498  0.43110658    -0.19300
F1050       F  0.28997050  0.86732397  0.27083000    -0.19300
F1051       F  0.25869205  0.84814254  0.31471772    -0.23200
F1052       F  0.27623358  0.82834768  0.28782228    -0.24800
C1053       C  0.06404348  0.63576972  0.45294878    -0.11600
C1054       C  0.06815968  0.65822898  0.46800043     0.11000
C1055       C  0.05218196  0.66022730  0.99863834    -0.03400
C1056       C  0.03242226  0.63801661  0.01313218    -0.06100
C1057       C  0.02882707  0.61527718  0.00047453    -0.16900
C1058       C  0.04432792  0.61460559  0.96996657     0.02000
C1059       C  0.09198453  0.68063632  0.45793855     0.12000
C1060       C  0.05575997  0.68441757  0.01374628     0.62600
H1061       H  0.02044204  0.63819911  0.03659976     0.12000
C1062       C  0.04165225  0.58954431  0.45215928     0.54700
H1063       H  0.07741126  0.63595203  0.43218257     0.07800
C1064       C  0.11429044  0.68528576  0.47675101    -0.06000
C1065       C  0.13654389  0.70391726  0.46019740    -0.06800
C1066       C  0.13716534  0.71741742  0.42502985    -0.16300
C1067       C  0.11491673  0.71410710  0.40856305    -0.01900
C1068       C  0.09268148  0.69579100  0.42538544    -0.09500
C1069       C  0.11474021  0.66975731  0.51259095     0.64800
H1070       H  0.15363297  0.70609943  0.47155133     0.10200
C1071       C  0.11369536  0.72789879  0.37072081     0.63200
H1072       H  0.07569491  0.69216769  0.41090960     0.07600
F1073       F  0.04341979  0.57679062  0.48578378    -0.19900
F1074       F  0.05953317  0.59335406  0.42392823    -0.16100
F1075       F  0.01799965  0.57701579  0.93659071    -0.19600
F1076       F  0.05440427  0.69752899  0.98031833    -0.23000
F1077       F  0.07832893  0.69797316  0.03289602    -0.24400
F1078       F  0.03811306  0.68109752  0.04210394    -0.18400
F1079       F  0.10267926  0.71174559  0.33807004    -0.20900
F1080       F  0.13642350  0.74634908  0.35807028    -0.22100
F1081       F  0.09992305  0.73839423  0.37994775    -0.19300
F1082       F  0.13811611  0.67872145  0.52834863    -0.19300
F1083       F  0.10618398  0.64613611  0.49929782    -0.23200
F1084       F  0.10112379  0.67167564  0.04740890    -0.24800
C1085       C  0.10282764  0.60785256  0.25327478    -0.11600
C1086       C  0.10503027  0.62865197  0.27231218     0.11000
C1087       C  0.08358272  0.62861252  0.28425206    -0.03400
C1088       C  0.06075152  0.60918992  0.27125933    -0.06100
C1089       C  0.05879986  0.58938285  0.24932714    -0.16900
C1090       C  0.07980454  0.58765203  0.24319126     0.02000
C1091       C  0.12975484  0.65024997  0.28007090     0.12000
C1092       C  0.08470660  0.64912017  0.30993424     0.62600
H1093       H  0.04437568  0.61001402  0.27600582     0.12000
C1094       C  0.07771998  0.56463186  0.22556095     0.54700
H1095       H  0.11923698  0.60779357  0.24523792     0.07800
C1096       C  0.14486573  0.65075464  0.31321870    -0.06000
C1097       C  0.16418266  0.67354002  0.32665200    -0.06800
C1098       C  0.16780619  0.69545243  0.30932265    -0.16300
C1099       C  0.15520576  0.69463649  0.27226788    -0.01900
C1100       C  0.13658020  0.67178383  0.25751828    -0.09500
C1101       C  0.13964609  0.62762167  0.33608033     0.64800
H1102       H  0.17429996  0.67459613  0.35471654     0.10200
C1103       C  0.15999250  0.71803184  0.25100328     0.63200
H1104       H  0.12548258  0.67083940  0.23094478     0.07600
F1105       F  0.06172038  0.54474482  0.24942352    -0.19900
F1106       F  0.10001786  0.56577719  0.22566077    -0.16100
F1107       F  0.06904329  0.56112186  0.18513648    -0.19600
F1108       F  0.09414901  0.67022679  0.28641545    -0.23000
F1109       F  0.09927829  0.65334778  0.34483445    -0.24400
F1110       F  0.06180513  0.64339774  0.32338233    -0.18400
F1111       F  0.14619878  0.71340193  0.21492039    -0.20900
F1112       F  0.18438993  0.73180715  0.24063421    -0.22100
F1113       F  0.15431876  0.73144875  0.27740691    -0.19300
F1114       F  0.15495939  0.63260130  0.37020274    -0.19300
F1115       F  0.14314966  0.61275649  0.30945973    -0.23200
F1116       F  0.11585730  0.61521074  0.35012933    -0.24800
C1117       C  0.40187312  0.32945247  0.16322445    -0.11600
C1118       C  0.39303526  0.31286696  0.12971868     0.11000
C1119       C  0.38176203  0.31762821  0.09542214    -0.03400
C1120       C  0.37905116  0.33829167  0.09647504    -0.06100
C1121       C  0.38740578  0.35459441  0.13022370    -0.16900
C1122       C  0.39939636  0.35036867  0.16398454     0.02000
C1123       C  0.39541325  0.29047528  0.13145723     0.12000
C1124       C  0.37201816  0.30064297  0.05812877     0.62600
H1125       H  0.36975946  0.34162132  0.07107041     0.12000
C1126       C  0.40853112  0.36728478  0.20139627     0.54700
H1127       H  0.41043086  0.32564487  0.18920864     0.07800
C1128       C  0.41743542  0.29117971  0.12174866    -0.06000
C1129       C  0.41787477  0.26912092  0.12155552    -0.06800
C1130       C  0.39714293  0.24643126  0.13121217    -0.16300
C1131       C  0.37556812  0.24601773  0.14335724    -0.01900
C1132       C  0.37498754  0.26797521  0.14263641    -0.09500
C1133       C  0.44038677  0.31523611  0.11181301     0.64800
H1134       H  0.43452408  0.26942703  0.11380881     0.10200
C1135       C  0.35356619  0.22265039  0.15873031     0.63200
H1136       H  0.35847400  0.26779140  0.15095419     0.07600
F1137       F  0.42676977  0.39030853  0.18932045    -0.19900
F1138       F  0.41797165  0.35901991  0.23220096    -0.16100
F1139       F  0.38951341  0.36888033  0.21827157    -0.19600
F1140       F  0.35190841  0.27870735  0.06979140    -0.23000
F1141       F  0.38974403  0.29637299  0.04309703    -0.24400
F1142       F  0.36502968  0.31044262  0.02590189    -0.18400
F1143       F  0.33528654  0.22655893  0.17230612    -0.20900
F1144       F  0.36042457  0.21330385  0.19178033    -0.22100
F1145       F  0.34411933  0.20566577  0.12699594    -0.19300
F1146       F  0.45917136  0.31186001  0.09932015    -0.19300
F1147       F  0.44812567  0.32988634  0.14684275    -0.23200
F1148       F  0.43575414  0.32716689  0.08005002    -0.24800
C1149       C  0.42191204  0.16356918  0.23866311    -0.11600
C1150       C  0.43782831  0.15804579  0.21814947     0.11000
C1151       C  0.45256111  0.17343218  0.18561818    -0.03400
C1152       C  0.44832545  0.19184920  0.17077030    -0.06100
C1153       C  0.42985197  0.19507712  0.18742473    -0.16900
C1154       C  0.41783978  0.18211327  0.22393535     0.02000
C1155       C  0.43729827  0.13508879  0.22972816     0.12000
C1156       C  0.47189957  0.16970669  0.16576063     0.62600
H1157       H  0.45742233  0.20194679  0.14287727     0.12000
C1158       C  0.39940547  0.18668196  0.24510827     0.54700
H1159       H  0.41157355  0.15221737  0.26471683     0.07800
C1160       C  0.45148702  0.13375883  0.26269378    -0.06000
C1161       C  0.44800806  0.11080969  0.27378704    -0.06800
C1162       C  0.42999063  0.08896305  0.25485484    -0.16300
C1163       C  0.41611523  0.09031944  0.22131147    -0.01900
C1164       C  0.42020059  0.11348948  0.20913842    -0.09500
C1165       C  0.46935849  0.15546662  0.28895598     0.64800
H1166       H  0.45821019  0.10973137  0.30019311     0.10200
C1167       C  0.39616972  0.06747346  0.20025905     0.63200
H1168       H  0.40897151  0.11481324  0.18499701     0.07600
F1169       F  0.39092708  0.17340101  0.28167249    -0.19900
F1170       F  0.37963567  0.18018263  0.21895633    -0.16100
F1171       F  0.41025190  0.21120613  0.25471957    -0.19600
F1172       F  0.48899721  0.17245753  0.19548167    -0.23000
F1173       F  0.48392155  0.18637692  0.13410189    -0.24400
F1174       F  0.46131990  0.14652315  0.14925153    -0.18400
F1175       F  0.38547910  0.07295638  0.16734515    -0.20900
F1176       F  0.37819519  0.05344159  0.22871677    -0.22100
F1177       F  0.40587889  0.05406493  0.18482066    -0.19300
F1178       F  0.49244761  0.15872483  0.28550426    -0.19300
F1179       F  0.46234810  0.15087451  0.33020757    -0.23200
F1180       F  0.47059664  0.17701320  0.27757531    -0.24800
C1181       C  0.36059608  0.12027421  0.08038768    -0.11600
C1182       C  0.37312562  0.12151286  0.04412131     0.11000
C1183       C  0.38231264  0.14263492  0.01855848    -0.03400
C1184       C  0.38303790  0.16369157  0.03457168    -0.06100
C1185       C  0.37389706  0.16354803  0.07433163    -0.16900
C1186       C  0.36008347  0.14075030  0.09507156     0.02000
C1187       C  0.37817317  0.10145581  0.03558614     0.12000
C1188       C  0.39179134  0.14641077  0.46978609     0.62600
H1189       H  0.39320431  0.18095956  0.01831234     0.12000
C1190       C  0.34792600  0.13843560  0.13645218     0.54700
H1191       H  0.35247877  0.10366045  0.09883249     0.07800
C1192       C  0.40088464  0.10366993  0.04644214    -0.06000
C1193       C  0.40722918  0.08573162  0.52365828    -0.06800
C1194       C  0.38833743  0.06514454  0.50359777    -0.16300
C1195       C  0.36539900  0.06336358  0.49768890    -0.01900
C1196       C  0.36266038  0.08314276  0.50913770    -0.09500
C1197       C  0.41949026  0.12461813  0.07327431     0.64800
H1198       H  0.42468037  0.08685839  0.52772983     0.10200
C1199       C  0.34390369  0.04044826  0.47956128     0.63200
H1200       H  0.34546012  0.08237965  0.50385012     0.07600
F1201       F  0.36196685  0.13683042  0.16811626    -0.19900
F1202       F  0.32506989  0.11752713  0.13670241    -0.16100
F1203       F  0.34497997  0.15816386  0.14381142    -0.19600
F1204       F  0.37330825  0.12672864  0.44850549    -0.23000
F1205       F  0.41295103  0.14554727  0.46709324    -0.24400
F1206       F  0.39559206  0.16757033  0.45039963    -0.18400
F1207       F  0.32262541  0.04130122  0.48041134    -0.20900
F1208       F  0.34027640  0.02046351  0.50269593    -0.22100
F1209       F  0.34838364  0.03743293  0.43869912    -0.19300
F1210       F  0.43996393  0.12284456  0.08068377    -0.19300
F1211       F  0.40913079  0.12410464  0.11106844    -0.23200
F1212       F  0.42695569  0.14687164  0.05444981    -0.24800
C1213       C  0.40278285  0.22477451  0.62973267     0.80500
N1214       N  0.41772762  0.22220762  0.65785618    -0.77800
C1215       C  0.41957200  0.20183054  0.65680783     0.82900
N1216       N  0.40663180  0.18445030  0.62856380    -0.77700
C1217       C  0.39154523  0.18623189  0.60117800     0.83000
N1218       N  0.38946217  0.20654556  0.60133357    -0.79500
C1219       C  0.19842801  0.75351915  0.87847787     0.80500
N1220       N  0.17965084  0.74809429  0.90497666    -0.77800
C1221       C  0.15778158  0.72713178  0.90009135     0.82900
N1222       N  0.15498805  0.71122740  0.87029022    -0.77700
C1223       C  0.17333006  0.71562266  0.84470441     0.83000
N1224       N  0.19517606  0.73690528  0.84829719    -0.79500
C1225       C  0.65580106  0.16794029  0.65032343     0.80500
N1226       N  0.66083694  0.18494093  0.61966754    -0.77800
C1227       C  0.68229728  0.20670685  0.62077490     0.82900
N1228       N  0.69865850  0.21102040  0.65132837    -0.77700
C1229       C  0.69430657  0.19429236  0.68111373     0.83000
N1230       N  0.67290457  0.17255554  0.68064365    -0.79500
C1231       C  0.45252390  0.68716389  0.89300733     0.80500
N1232       N  0.43689061  0.69015344  0.86709190    -0.77800
C1233       C  0.43559841  0.71084901  0.86925133     0.82900
N1234       N  0.45021928  0.72858968  0.89588091    -0.77700
C1235       C  0.46610267  0.72652835  0.92090713     0.83000
N1236       N  0.46724223  0.70570595  0.91998030    -0.79500
C1237       C  0.71351388  0.47138845  0.63085232     0.80500
N1238       N  0.69717076  0.45774301  0.60017646    -0.77800
C1239       C  0.67592078  0.45780867  0.59600373     0.82900
N1240       N  0.67132008  0.47163336  0.62138616    -0.77700
C1241       C  0.68716461  0.48552239  0.65127421     0.83000
N1242       N  0.70848956  0.48549335  0.65641349    -0.79500
C1243       C  0.13907270  0.44398851  0.86999063     0.80500
N1244       N  0.15773195  0.45765888  0.89715394    -0.77800
C1245       C  0.17875285  0.45721423  0.89577311     0.82900
N1246       N  0.18093089  0.44257311  0.86859472    -0.77700
C1247       C  0.16275269  0.42825530  0.84222402     0.83000
N1248       N  0.14155161  0.42880527  0.84259878    -0.79500
Zr1249     Zr  0.92356477  0.43725053  0.87954973     2.17500
O1250       O  0.94883185  0.48160102  0.87435964    -0.51100
O1251       O  0.96365749  0.44005519  0.88566808    -0.74300
O1252       O  0.92782392  0.45826364  0.94825328    -0.81000
O1253       O  0.91090907  0.42619721  0.75697158    -0.82800
O1254       O  0.90391850  0.43139098  0.99834888    -0.78400
O1255       O  0.93045139  0.45508632  0.80738697    -0.90000
O1256       O  0.95697994  0.40218941  0.90033124    -0.76000
O1257       O  0.91456241  0.40722186  0.93231033    -0.85500
O1258       O  0.92199163  0.40317361  0.84488132    -0.85200
O1259       O  0.88445751  0.42682665  0.90816511    -0.71900
O1260       O  0.89178653  0.42193444  0.82759605    -0.84100
Zr1261     Zr  0.84304375  0.34926321  0.87617858     2.26400
Zr1262     Zr  0.87511857  0.39567699  0.96018581     2.06300
Zr1263     Zr  0.88950947  0.38724989  0.79386903     2.10000
Zr1264     Zr  0.91334890  0.37361134  0.89796949     1.78800
O1265       O  0.87396227  0.38683084  0.72400982    -0.92900
O1266       O  0.92356609  0.36710347  0.96838099    -0.40700
O1267       O  0.88107817  0.35792306  0.84726979    -0.77300
O1268       O  0.87438975  0.36175509  0.92788874    -0.96000
O1269       O  0.84421592  0.38310912  0.90824487    -0.89300
O1270       O  0.85123191  0.37783940  0.82164973    -0.92200
C1271       C  0.97120295  0.42502656  0.89304314     1.01600
C1272       C  0.92465735  0.44848853  0.76860546     1.14500
C1273       C  0.92004834  0.45280301  0.98641271     1.05300
O1274       O  0.88521109  0.37703387  0.01761137    -0.94300
O1275       O  0.83615220  0.36327496  0.98861328    -0.90100
O1276       O  0.81820463  0.33516812  0.93708762    -0.83200
C1277       C  0.81856076  0.34319800  0.97356916     1.11900
O1278       O  0.86552095  0.45526223  0.85097414    -0.96300
Zr1279     Zr  0.85360274  0.41234978  0.85457455     1.88900
O1280       O  0.80422098  0.34502971  0.85615510    -0.72900
O1281       O  0.85481152  0.41276041  0.99963798    -0.52200
O1282       O  0.82676878  0.42200938  0.89255151    -0.96900
O1283       O  0.85070580  0.42295885  0.78236326    -0.54100
O1284       O  0.81155222  0.38294277  0.84106002    -0.73500
C1285       C  0.79728206  0.35985956  0.84455994     0.98900
O1286       O  0.83001235  0.30668792  0.89123230    -0.62300
O1287       O  0.92121320  0.38096236  0.76565244    -0.57100
O1288       O  0.83316117  0.32383074  0.81694790    -0.93800
O1289       O  0.86157176  0.34517637  0.76727426    -0.92200
O1290       O  0.93193973  0.35806236  0.85078405    -0.92500
O1291       O  0.90138912  0.33088011  0.90564707    -0.91300
C1292       C  0.84256452  0.32573553  0.78132202     1.17700
H1293       H  0.93728796  0.40800594  0.83094447     0.33700
H1294       H  0.86995929  0.34868878  0.94796730     0.44500
H1295       H  0.83890381  0.37120145  0.79989730     0.38100
H1296       H  0.88519365  0.44089982  0.92077850     0.34500
H1297       H  0.93716915  0.36400730  0.96482848     0.26300
H1298       H  0.86010679  0.41334393  0.02893937     0.32300
H1299       H  0.82751920  0.41718630  0.92168172     0.38200
H1300       H  0.94525043  0.37261244  0.83678242     0.32600
H1301       H  0.91267313  0.36344903  0.75811805     0.31500
H1302       H  0.88327848  0.38217796  0.70560124     0.33200
H1303       H  0.83305468  0.41368410  0.77551774     0.32200
H1304       H  0.88360432  0.32176307  0.89986698     0.36200
H1305       H  0.83588305  0.30661154  0.91992743     0.28900
H1306       H  0.96194894  0.48643444  0.89549645     0.33100
H1307       H  0.85239612  0.45567387  0.83477742     0.36000
H1308       H  0.92545648  0.38972031  0.73862857     0.28600
H1309       H  0.81201145  0.29807428  0.89337094     0.41500
H1310       H  0.88154049  0.38321355  0.04306079     0.31500
H1311       H  0.93120496  0.38336009  0.98174989     0.39100
H1312       H  0.85774302  0.41506278  0.76570966     0.31000
H1313       H  0.86250126  0.43007001  0.99084075     0.31000
H1314       H  0.93861054  0.48796811  0.88496081     0.31300
Zr1315     Zr  0.93129483  0.48363052  0.62822102     2.17500
O1316       O  0.90569067  0.43926629  0.62397963    -0.51100
O1317       O  0.89131536  0.48125527  0.63199206    -0.74300
O1318       O  0.92618149  0.46249065  0.69737932    -0.81000
O1319       O  0.94312567  0.49358488  0.50643748    -0.82800
O1320       O  0.95154680  0.48900792  0.74690282    -0.78400
O1321       O  0.92370075  0.46510558  0.55734286    -0.90000
O1322       O  0.89777448  0.51937128  0.64278600    -0.76000
O1323       O  0.94045252  0.51416977  0.67938123    -0.85500
O1324       O  0.93294726  0.51731937  0.59108584    -0.85200
O1325       O  0.97027264  0.49408473  0.65887757    -0.71900
O1326       O  0.96360346  0.49815939  0.57812406    -0.84100
Zr1327     Zr  0.01138004  0.57246682  0.62435054     2.26400
Zr1328     Zr  0.97971075  0.52553455  0.70940735     2.06300
Zr1329     Zr  0.96578237  0.53246759  0.54180886     2.10000
Zr1330     Zr  0.94130758  0.54731843  0.64288999     1.78800
O1331       O  0.97969616  0.52931760  0.47301861    -0.92900
O1332       O  0.92561751  0.55006773  0.71021028    -0.40700
O1333       O  0.97335206  0.56272039  0.59272416    -0.77300
O1334       O  0.98004644  0.55933958  0.67553337    -0.96000
O1335       O  0.01101919  0.53918235  0.65906716    -0.89300
O1336       O  0.00391153  0.54285713  0.57258313    -0.92200
C1337       C  0.88376279  0.49638099  0.63742485     1.01600
C1338       C  0.92921611  0.47151962  0.51861935     1.14500
C1339       C  0.93454143  0.46781727  0.73541989     1.05300
O1340       O  0.96928263  0.54093650  0.77013900    -0.94300
O1341       O  0.01920267  0.55802671  0.73658533    -0.90100
O1342       O  0.03607483  0.58756022  0.68668234    -0.83200
C1343       C  0.03627935  0.57866728  0.72251232     1.11900
O1344       O  0.99357013  0.46729629  0.60217422    -0.96300
Zr1345     Zr  0.00204407  0.50903141  0.60805007     1.88900
O1346       O  0.05029170  0.57797714  0.60382015    -0.72900
O1347       O  0.00166477  0.50925028  0.74770372    -0.52200
O1348       O  0.02335277  0.49545886  0.65453936    -0.96900
O1349       O  0.00768542  0.49937751  0.53723325    -0.54100
O1350       O  0.04431456  0.53994831  0.59841399    -0.73500
C1351       C  0.05798515  0.56328967  0.59700519     0.98900
O1352       O  0.02302461  0.61488210  0.63641213    -0.62300
O1353       O  0.93637375  0.54102418  0.50858959    -0.57100
O1354       O  0.02062774  0.59644397  0.56183665    -0.93800
O1355       O  0.99555704  0.57217466  0.50996833    -0.92200
O1356       O  0.92457290  0.56285165  0.59058662    -0.92500
O1357       O  0.95274394  0.58956797  0.65561061    -0.91300
C1358       C  0.01333834  0.59260147  0.52389460     1.17700
H1359       H  0.91791879  0.51246387  0.57616556     0.33700
H1360       H  0.98427472  0.57214058  0.69542581     0.44500
H1361       H  0.01625607  0.54925566  0.55145458     0.38100
H1362       H  0.96941758  0.48003995  0.67215987     0.34500
H1363       H  0.91670290  0.53310482  0.72098626     0.26300
H1364       H  0.99776712  0.50955102  0.77738508     0.32300
H1365       H  0.03152347  0.50859760  0.67551120     0.38200
H1366       H  0.93886210  0.57530735  0.57485239     0.32600
H1367       H  0.94515431  0.55152076  0.48445154     0.31500
H1368       H  0.97178524  0.53532431  0.45342159     0.33200
H1369       H  0.02515939  0.50444966  0.53585066     0.32200
H1370       H  0.96731742  0.59634317  0.67401000     0.36200
H1371       H  0.01125700  0.61735514  0.61977777     0.28900
H1372       H  0.89240157  0.43466379  0.64419225     0.33100
H1373       H  0.97601401  0.45760231  0.59466985     0.36000
H1374       H  0.92401191  0.52528243  0.49604522     0.28600
H1375       H  0.01844969  0.61535085  0.66560951     0.41500
H1376       H  0.97477523  0.53509073  0.79423600     0.31500
H1377       H  0.94022977  0.55853562  0.72844218     0.39100
H1378       H  0.00612825  0.51117101  0.51910102     0.31000
H1379       H  0.99349729  0.49170898  0.74048401     0.31000
H1380       H  0.91564813  0.43275236  0.63591430     0.31300
Zr1381     Zr  0.41551507  0.96534264  0.88508444     2.17500
O1382       O  0.43546864  0.94130038  0.88186030    -0.51100
O1383       O  0.37657650  0.92594542  0.88615379    -0.74300
O1384       O  0.42505665  0.95487749  0.95536656    -0.81000
O1385       O  0.42747227  0.98309374  0.76465097    -0.82800
O1386       O  0.41951573  0.97662332  0.00568742    -0.78400
O1387       O  0.42533555  0.95638386  0.81458224    -0.90000
O1388       O  0.34615015  0.93385626  0.87352459    -0.76000
O1389       O  0.38605936  0.96962907  0.92391186    -0.85500
O1390       O  0.39271636  0.97383860  0.83487489    -0.85200
O1391       O  0.43885684  0.99997105  0.93058562    -0.71900
O1392       O  0.44375819  0.00255422  0.84911621    -0.84100
Zr1393     Zr  0.41385543  0.04814043  0.88529125     2.26400
Zr1394     Zr  0.40893769  0.00410504  0.96972916     2.06300
Zr1395     Zr  0.42027040  0.01171802  0.80027872     2.10000
Zr1396     Zr  0.36332919  0.97772426  0.87321899     1.78800
O1397       O  0.45287651  0.02896796  0.74921621    -0.92900
O1398       O  0.33172036  0.96335364  0.92613716    -0.40700
O1399       O  0.39019621  0.01541820  0.83761048    -0.77300
O1400       O  0.38505129  0.01122179  0.91985485    -0.96000
O1401       O  0.43757318  0.04112166  0.93513551    -0.89300
O1402       O  0.44336716  0.04475722  0.84658721    -0.92200
C1403       C  0.35392198  0.91909518  0.88025934     1.01600
C1404       C  0.42850930  0.96444594  0.77643378     1.14500
C1405       C  0.42552912  0.96113715  0.99391554     1.05300
O1406       O  0.37464280  0.97858245  0.01492347    -0.94300
O1407       O  0.39689045  0.03261840  0.99838569    -0.90100
O1408       O  0.40382657  0.06095253  0.94825471    -0.83200
C1409       C  0.39707831  0.05190263  0.98470491     1.11900
O1410       O  0.49956761  0.02846549  0.90376842    -0.96300
Zr1411     Zr  0.46632112  0.03660751  0.89503547     1.88900
O1412       O  0.45095664  0.08718121  0.89472470    -0.72900
O1413       O  0.43451240  0.02570151  0.02968773    -0.52200
O1414       O  0.48968089  0.04810952  0.95995762    -0.96900
O1415       O  0.49354009  0.04815342  0.83544384    -0.54100
O1416       O  0.48261537  0.08041134  0.89671849    -0.73500
C1417       C  0.47383513  0.09459730  0.89617095     0.98900
O1418       O  0.38509462  0.06241810  0.87707296    -0.62300
O1419       O  0.38718123  0.99528594  0.74918470    -0.57100
O1420       O  0.42102148  0.07062687  0.82137119    -0.93800
O1421       O  0.42615280  0.04993072  0.76891394    -0.92200
O1422       O  0.34163845  0.96378703  0.80686029    -0.92500
O1423       O  0.33340726  0.99044342  0.86407446    -0.91300
C1424       C  0.42597405  0.06863521  0.78363039     1.17700
H1425       H  0.38471721  0.96070948  0.81502390     0.33700
H1426       H  0.37305180  0.01353063  0.93334015     0.44500
H1427       H  0.45417338  0.05946781  0.83176760     0.38100
H1428       H  0.44994771  0.99790867  0.94883818     0.34500
H1429       H  0.32981639  0.94779919  0.93650314     0.26300
H1430       H  0.42679147  0.01445425  0.05353142     0.32300
H1431       H  0.48310606  0.05660617  0.97615833     0.38200
H1432       H  0.34460380  0.97880757  0.79225607     0.32600
H1433       H  0.38202277  0.00754097  0.74747666     0.31500
H1434       H  0.44446320  0.02588526  0.72185354     0.33200
H1435       H  0.50928103  0.06209865  0.84510361     0.32200
H1436       H  0.34304124  0.00767416  0.85483561     0.36200
H1437       H  0.39514347  0.08007631  0.87057273     0.28900
H1438       H  0.42513196  0.92633886  0.89834361     0.33100
H1439       H  0.49153413  0.01106008  0.91204422     0.36000
H1440       H  0.39522251  0.99673235  0.72224517     0.28600
H1441       H  0.37602323  0.05478954  0.85099255     0.41500
H1442       H  0.36714352  0.96195700  0.00304817     0.31500
H1443       H  0.33923833  0.97474523  0.94984039     0.39100
H1444       H  0.48739170  0.05532035  0.81464974     0.31000
H1445       H  0.44993680  0.02586212  0.02521351     0.31000
H1446       H  0.45078726  0.95051503  0.89822688     0.31300
Zr1447     Zr  0.44690801  0.95020527  0.63512124     2.17500
O1448       O  0.43125374  0.97790708  0.62752317    -0.51100
O1449       O  0.48620186  0.98903270  0.63792491    -0.74300
O1450       O  0.43559415  0.95866060  0.70496756    -0.81000
O1451       O  0.44161398  0.93638258  0.51444163    -0.82800
O1452       O  0.43541426  0.93327723  0.75568769    -0.78400
O1453       O  0.43458048  0.95736494  0.56411548    -0.90000
O1454       O  0.51587884  0.98032414  0.65083799    -0.76000
O1455       O  0.46727077  0.94016398  0.68778988    -0.85500
O1456       O  0.47752534  0.94615133  0.59953852    -0.85200
O1457       O  0.41658382  0.91261163  0.66810738    -0.71900
O1458       O  0.42603343  0.91724513  0.58663770    -0.84100
Zr1459     Zr  0.44686886  0.86693381  0.63559049     2.26400
Zr1460     Zr  0.43782402  0.90191359  0.71928182     2.06300
Zr1461     Zr  0.45658750  0.91286377  0.55135478     2.10000
Zr1462     Zr  0.49778320  0.93642284  0.65279928     1.78800
O1463       O  0.43943168  0.89750772  0.48242738    -0.92900
O1464       O  0.51633960  0.94957288  0.72174111    -0.40700
O1465       O  0.47776490  0.90373806  0.60359317    -0.77300
O1466       O  0.46895466  0.89852344  0.68539261    -0.96000
O1467       O  0.41614902  0.87019140  0.67026057    -0.89300
O1468       O  0.42615734  0.87587215  0.58271058    -0.92200
C1469       C  0.50871291  0.99560599  0.64431809     1.01600
C1470       C  0.43427195  0.95089843  0.52561199     1.14500
C1471       C  0.43356279  0.95139603  0.74350789     1.05300
O1472       O  0.46520519  0.91216254  0.77906157    -0.94300
O1473       O  0.43306860  0.86420755  0.75046017    -0.90100
O1474       O  0.43466935  0.84192078  0.69698643    -0.83200
C1475       C  0.43160384  0.84480703  0.73530421     1.11900
O1476       O  0.36762635  0.89536596  0.61675168    -0.96300
Zr1477     Zr  0.39593959  0.88018771  0.61825340     1.88900
O1478       O  0.41080824  0.82915000  0.61579041    -0.72900
O1479       O  0.39987786  0.88211061  0.75849198    -0.52200
O1480       O  0.36214919  0.85924203  0.66657521    -0.96900
O1481       O  0.37804973  0.87424467  0.54851327    -0.54100
O1482       O  0.37966476  0.83660454  0.60986159    -0.73500
C1483       C  0.38833257  0.82230713  0.60915281     0.98900
O1484       O  0.47495083  0.85250588  0.65140998    -0.62300
O1485       O  0.49559294  0.94115885  0.51931470    -0.57100
O1486       O  0.46005194  0.85529658  0.57585133    -0.93800
O1487       O  0.46534635  0.88203100  0.52377186    -0.92200
O1488       O  0.53193187  0.95059470  0.60532714    -0.92500
O1489       O  0.52651278  0.92307501  0.66999424    -0.91300
C1490       C  0.46571171  0.86334604  0.53873399     1.17700
H1491       H  0.48851805  0.96076000  0.58445896     0.33700
H1492       H  0.47713392  0.89365014  0.70495247     0.44500
H1493       H  0.41903258  0.86326874  0.56194646     0.38100
H1494       H  0.40449644  0.91500004  0.68159566     0.34500
H1495       H  0.50850569  0.95808979  0.73390742     0.26300
H1496       H  0.40328537  0.89166168  0.78444484     0.32300
H1497       H  0.34783707  0.84832183  0.64897935     0.38200
H1498       H  0.52979844  0.96118449  0.58506872     0.32600
H1499       H  0.49734122  0.93165413  0.49676814     0.31500
H1500       H  0.45214812  0.90873535  0.46274535     0.33200
H1501       H  0.38916290  0.87204115  0.53020996     0.32200
H1502       H  0.51892094  0.90636307  0.65845202     0.36200
H1503       H  0.47988848  0.85684219  0.68090781     0.28900
H1504       H  0.43976323  0.99056921  0.64915383     0.33100
H1505       H  0.35275324  0.88274541  0.60217259     0.36000
H1506       H  0.49279049  0.95325600  0.50460479     0.28600
H1507       H  0.46480423  0.83445183  0.65122657     0.41500
H1508       H  0.45492135  0.90992135  0.80350198     0.31500
H1509       H  0.50996198  0.93436206  0.73828238     0.39100
H1510       H  0.38057440  0.89039693  0.54028184     0.31000
H1511       H  0.38851878  0.88542232  0.74239689     0.31000
H1512       H  0.41409629  0.96837162  0.63681668     0.31300
C1513       C  0.58892025  0.31271171  0.82781067     0.80500
N1514       N  0.61285990  0.31990897  0.82426563    -0.77800
C1515       C  0.62073402  0.30438979  0.83490630     0.82900
N1516       N  0.60470885  0.28158548  0.84857726    -0.77700
C1517       C  0.58080235  0.27422812  0.85233997     0.83000
N1518       N  0.57311001  0.28996871  0.84247502    -0.79500
C1519       C  0.26478198  0.60256409  0.58748185     0.80500
N1520       N  0.24063694  0.59482978  0.58675215    -0.77800
C1521       C  0.23313558  0.61092666  0.57919711     0.82900
N1522       N  0.24972623  0.63473677  0.57275208    -0.77700
C1523       C  0.27387167  0.64265766  0.57369532     0.83000
N1524       N  0.28135678  0.62658961  0.58152258    -0.79500
Zr1525     Zr  0.40194677  0.43662442  0.63499576     2.17500
O1526       O  0.44644624  0.45828846  0.63346950    -0.51100
O1527       O  0.40196692  0.39774600  0.63517198    -0.74300
O1528       O  0.42125675  0.44634947  0.70615619    -0.81000
O1529       O  0.39653496  0.44787823  0.51414786    -0.82800
O1530       O  0.39351666  0.44086424  0.75583338    -0.78400
O1531       O  0.42211519  0.44834084  0.56495062    -0.90000
O1532       O  0.36283048  0.36681927  0.62626282    -0.76000
O1533       O  0.36755292  0.40768804  0.67493023    -0.85500
O1534       O  0.37029241  0.41301215  0.58540842    -0.85200
O1535       O  0.39044050  0.45955339  0.67958051    -0.71900
O1536       O  0.39322518  0.46405206  0.59646253    -0.84100
Zr1537     Zr  0.31751925  0.43454310  0.63352980     2.26400
Zr1538     Zr  0.35557915  0.43017808  0.71944113     2.06300
Zr1539     Zr  0.36008070  0.43981433  0.54874974     2.10000
Zr1540     Zr  0.33652086  0.38397717  0.62489390     1.78800
O1541       O  0.37471347  0.46899303  0.49122928    -0.92900
O1542       O  0.32116320  0.35197427  0.67776391    -0.40700
O1543       O  0.32595969  0.41025660  0.58774656    -0.77300
O1544       O  0.32432125  0.40546254  0.67027324    -0.96000
O1545       O  0.34877512  0.45884554  0.68221274    -0.89300
O1546       O  0.35112145  0.46384406  0.59371879    -0.92200
C1547       C  0.38570892  0.37492406  0.63093914     1.01600
C1548       C  0.41697279  0.45076291  0.52642362     1.14500
C1549       C  0.41520258  0.44706262  0.74445332     1.05300
O1550       O  0.34501525  0.39474364  0.76309127    -0.94300
O1551       O  0.31539595  0.42009462  0.74917895    -0.90100
O1552       O  0.29266503  0.42014325  0.69429165    -0.83200
C1553       C  0.29525375  0.41681304  0.73282597     1.11900
O1554       O  0.42657654  0.51302589  0.65704540    -0.96300
Zr1555     Zr  0.38305250  0.48713639  0.64175870     1.88900
O1556       O  0.31921228  0.47349718  0.63746690    -0.72900
O1557       O  0.36073410  0.45633271  0.77841421    -0.52200
O1558       O  0.38962052  0.51054114  0.70524477    -0.96900
O1559       O  0.40195519  0.51667024  0.58533587    -0.54100
O1560       O  0.35816491  0.50544238  0.63766491    -0.76500
C1561       C  0.33507442  0.49642497  0.63709377     0.98900
O1562       O  0.27374966  0.41930411  0.63537792    -0.62300
O1563       O  0.34040635  0.40497302  0.50181450    -0.57100
O1564       O  0.29879649  0.42484288  0.56532720    -0.93800
O1565       O  0.32859832  0.44727923  0.52010896    -0.92200
O1566       O  0.32906663  0.36261501  0.55883810    -0.92500
O1567       O  0.29303007  0.35546725  0.61464149    -0.91300
C1568       C  0.30685147  0.43873409  0.53354891     1.17700
H1569       H  0.37541552  0.40495112  0.56619002     0.33700
H1570       H  0.30985879  0.39320069  0.68414517     0.44500
H1571       H  0.34741900  0.47453768  0.57787321     0.38100
H1572       H  0.40352595  0.47075871  0.69765703     0.34500
H1573       H  0.31963781  0.33752847  0.66345613     0.26300
H1574       H  0.36306318  0.44816262  0.80293547     0.32300
H1575       H  0.39681128  0.52770757  0.69594671     0.38200
H1576       H  0.32817566  0.34702388  0.56598051     0.32600
H1577       H  0.32269612  0.39776803  0.50650259     0.31500
H1578       H  0.36948989  0.45895546  0.46559298     0.33200
H1579       H  0.38834463  0.51337894  0.56614118     0.32200
H1580       H  0.28707153  0.36479710  0.59863560     0.36200
H1581       H  0.27104087  0.43046586  0.61750629     0.28900
H1582       H  0.45130611  0.44860687  0.65109223     0.33100
H1583       H  0.43034513  0.53004026  0.65312690     0.36000
H1584       H  0.34308447  0.41224750  0.47361071     0.28600
H1585       H  0.26577281  0.40351227  0.62038092     0.41500
H1586       H  0.33429188  0.39505040  0.78485951     0.31500
H1587       H  0.33498627  0.35705592  0.69750687     0.39100
H1588       H  0.41157014  0.51110044  0.56984154     0.31000
H1589       H  0.37682421  0.47128037  0.77425861     0.31000
H1590       H  0.45194824  0.47362299  0.64907005     0.31300
Zr1591     Zr  0.44850828  0.47171720  0.88567966     2.17500
O1592       O  0.40442785  0.45357191  0.87960003    -0.51100
O1593       O  0.44724508  0.50996691  0.88896236    -0.74300
O1594       O  0.42923714  0.45880801  0.95601251    -0.81000
O1595       O  0.45683243  0.46621994  0.76554040    -0.82800
O1596       O  0.45367239  0.45546787  0.00478284    -0.78400
O1597       O  0.42857385  0.45802420  0.81562138    -0.90000
O1598       O  0.48613043  0.54142476  0.89818040    -0.76000
O1599       O  0.47911578  0.49156293  0.93827686    -0.85500
O1600       O  0.48261274  0.50464895  0.85076588    -0.85200
O1601       O  0.45713581  0.44149847  0.91379569    -0.71900
O1602       O  0.46266692  0.45449000  0.83503459    -0.84100
Zr1603     Zr  0.53491147  0.47793979  0.88085314     2.26400
Zr1604     Zr  0.48885389  0.46215613  0.96576630     2.06300
Zr1605     Zr  0.49678674  0.48740062  0.79992438     2.10000
Zr1606     Zr  0.51281338  0.52473692  0.90405844     1.78800
O1607       O  0.49604306  0.48096990  0.72501787    -0.92900
O1608       O  0.51462766  0.54370417  0.97083928    -0.40700
O1609       O  0.52740189  0.50840038  0.85231233    -0.77300
O1610       O  0.52316895  0.49620726  0.93365471    -0.96000
O1611       O  0.50134403  0.44451729  0.91380117    -0.89300
O1612       O  0.50514469  0.45777903  0.82734463    -0.92200
C1613       C  0.46319502  0.53292206  0.89283071     1.01600
C1614       C  0.43467673  0.45759784  0.77725444     1.14500
C1615       C  0.43391252  0.45473410  0.99381494     1.05300
O1616       O  0.50587504  0.48788998  0.02713389    -0.94300
O1617       O  0.52133603  0.45535213  0.99266523    -0.90100
O1618       O  0.54856026  0.46463822  0.94037002    -0.83200
C1619       C  0.54076699  0.45708960  0.97724414     1.11900
O1620       O  0.42992538  0.38923603  0.86328780    -0.96300
Zr1621     Zr  0.47118213  0.42465806  0.86136537     1.88900
O1622       O  0.53782123  0.44445501  0.85175454    -0.72900
O1623       O  0.47052757  0.42259391  0.00071637    -0.52200
O1624       O  0.46575250  0.39285924  0.91038446    -0.96900
O1625       O  0.45282297  0.40843606  0.79320956    -0.54100
O1626       O  0.49986375  0.41320419  0.83644895    -0.73500
C1627       C  0.52316152  0.42317328  0.83658464     0.98900
O1628       O  0.57758316  0.50773211  0.89651258    -0.62300
O1629       O  0.50475514  0.52724889  0.77582941    -0.57100
O1630       O  0.55979748  0.49330497  0.82085445    -0.93800
O1631       O  0.53567659  0.49461945  0.76931993    -0.92200
O1632       O  0.53460987  0.55733275  0.85348930    -0.92500
O1633       O  0.55369264  0.55449445  0.92889845    -0.91300
C1634       C  0.55577608  0.49657350  0.78306732     1.17700
H1635       H  0.47810784  0.51518150  0.83625999     0.33700
H1636       H  0.53616874  0.50435786  0.95371355     0.44500
H1637       H  0.51072767  0.45243395  0.80432377     0.38100
H1638       H  0.44264653  0.42833991  0.92645966     0.34500
H1639       H  0.52070787  0.56110347  0.96432582     0.26300
H1640       H  0.47073886  0.42623017  0.03070015     0.32300
H1641       H  0.48129952  0.39288149  0.90997420     0.38200
H1642       H  0.53566370  0.57195045  0.86624074     0.32600
H1643       H  0.52116724  0.53502792  0.76326585     0.31500
H1644       H  0.50384036  0.49744332  0.71229555     0.33200
H1645       H  0.46512926  0.41961688  0.77294177     0.32200
H1646       H  0.56470490  0.55071778  0.91340303     0.36200
H1647       H  0.58095109  0.52276672  0.88145349     0.28900
H1648       H  0.40040288  0.46324872  0.89839647     0.33100
H1649       H  0.43124749  0.37550882  0.85205711     0.36000
H1650       H  0.49342487  0.52367641  0.75197216     0.28600
H1651       H  0.57787213  0.51192220  0.92622779     0.41500
H1652       H  0.49996550  0.49954604  0.02513739     0.31500
H1653       H  0.49738664  0.53707400  0.97871649     0.39100
H1654       H  0.43930282  0.41178281  0.79023206     0.31000
H1655       H  0.45305406  0.41388937  0.99256197     0.31000
H1656       H  0.39739323  0.43734077  0.89306599     0.31300
C1657       C  0.32429906  0.54778751  0.60672352    -0.11600
C1658       C  0.30441219  0.54241531  0.63183869     0.11000
C1659       C  0.29430378  0.52181163  0.65839741    -0.03400
C1660       C  0.30546539  0.50769379  0.66015033    -0.06100
C1661       C  0.32575640  0.51331482  0.63545281    -0.16900
C1662       C  0.33519542  0.53351276  0.60766348     0.02000
C1663       C  0.29305048  0.55724942  0.62503175     0.12000
C1664       C  0.27174822  0.51464349  0.68411896     0.62600
H1665       H  0.29809641  0.49178726  0.68024656     0.12000
C1666       C  0.35549956  0.53928718  0.57710941     0.54700
H1667       H  0.33073336  0.56301766  0.58524668     0.07800
C1668       C  0.30424546  0.58166734  0.63892060    -0.06000
C1669       C  0.29373424  0.59543783  0.62683547    -0.06800
C1670       C  0.27331542  0.58592716  0.60009939    -0.16300
C1671       C  0.26250035  0.56162970  0.58537697    -0.01900
C1672       C  0.27259598  0.54764390  0.59857789    -0.09500
C1673       C  0.32731562  0.59330257  0.66573428     0.64800
H1674       H  0.30170443  0.61404870  0.63772671     0.10200
C1675       C  0.24137494  0.55079838  0.55431438     0.63200
H1676       H  0.26501233  0.52920589  0.58726665     0.07600
F1677       F  0.37731654  0.54763322  0.59838823    -0.19900
F1678       F  0.35865638  0.55718423  0.54875345    -0.16100
F1679       F  0.34992491  0.51858212  0.55472819    -0.19600
F1680       F  0.25186126  0.50814072  0.65824092    -0.23000
F1681       F  0.27568507  0.53410299  0.70860907    -0.24400
F1682       F  0.26605107  0.49498219  0.71003550    -0.18400
F1683       F  0.23698150  0.52868365  0.53864658    -0.20900
F1684       F  0.24660985  0.56658138  0.52100123    -0.22100
F1685       F  0.22030757  0.54679000  0.57342205    -0.19300
F1686       F  0.33447424  0.61706152  0.67657440    -0.19300
F1687       F  0.34638926  0.59404256  0.64440803    -0.23200
F1688       F  0.32332545  0.57995630  0.70196276    -0.24800
C1689       C  0.53212890  0.37409289  0.78616182    -0.11600
C1690       C  0.55464506  0.38012366  0.80412065     0.11000
C1691       C  0.56883574  0.40274652  0.82444005    -0.03400
C1692       C  0.55839886  0.41712028  0.83142511    -0.06100
C1693       C  0.53420249  0.40937664  0.81929872    -0.16900
C1694       C  0.52151318  0.38846492  0.79306592     0.02000
C1695       C  0.56135539  0.36110346  0.80711716     0.12000
C1696       C  0.59441637  0.41101830  0.84056412     0.62600
H1697       H  0.56872378  0.43383510  0.84900678     0.12000
C1698       C  0.49668893  0.38048952  0.77347525     0.54700
H1699       H  0.52208715  0.35699486  0.76941644     0.07800
C1700       C  0.55260106  0.34397945  0.84020274    -0.06000
C1701       C  0.56193849  0.32838790  0.84505883    -0.06800
C1702       C  0.57996004  0.32966923  0.81862638    -0.16300
C1703       C  0.58822295  0.34642345  0.78467357    -0.01900
C1704       C  0.57839928  0.36170459  0.77926923    -0.09500
C1705       C  0.53403878  0.34270660  0.87110781     0.64800
H1706       H  0.55571506  0.31547967  0.87066240     0.10200
C1707       C  0.60744513  0.34861095  0.75453977     0.63200
H1708       H  0.58472520  0.37504498  0.75430562     0.07600
F1709       F  0.47884627  0.37052344  0.80360463    -0.19900
F1710       F  0.49062934  0.36295521  0.74302346    -0.16100
F1711       F  0.49675715  0.40018926  0.75480365    -0.19600
F1712       F  0.60916755  0.41316718  0.80764384    -0.23000
F1713       F  0.59381936  0.39421127  0.86878724    -0.24400
F1714       F  0.60483343  0.43343786  0.86029468    -0.18400
F1715       F  0.60929287  0.36267808  0.72007964    -0.20900
F1716       F  0.60158618  0.32576304  0.74042497    -0.22100
F1717       F  0.62996301  0.35958610  0.77434439    -0.19300
F1718       F  0.52842335  0.32501221  0.90132217    -0.19300
F1719       F  0.51264684  0.33714929  0.85050021    -0.23200
F1720       F  0.54317899  0.36487765  0.89104834    -0.24800
C1721       C  0.33647867  0.76211444  0.56671280    -0.11600
C1722       C  0.34073960  0.74555146  0.58845275     0.11000
C1723       C  0.36140624  0.75396259  0.61474840    -0.03400
C1724       C  0.37620656  0.77919848  0.62122648    -0.06100
C1725       C  0.37148583  0.79602817  0.60074043    -0.16900
C1726       C  0.35172665  0.78738741  0.57185296     0.02000
C1727       C  0.32294074  0.71937725  0.58336430     0.12000
C1728       C  0.36782071  0.73635653  0.63540223     0.62600
H1729       H  0.39160103  0.78597376  0.64256196     0.12000
C1730       C  0.34696419  0.80446448  0.54552796     0.54700
H1731       H  0.32084358  0.75494664  0.54584709     0.07800
C1732       C  0.30105496  0.70780286  0.60629349    -0.06000
C1733       C  0.28569641  0.68260639  0.60196253    -0.06800
C1734       C  0.29131332  0.66898026  0.57502190    -0.16300
C1735       C  0.31268221  0.68071422  0.55064439    -0.01900
C1736       C  0.32817911  0.70603219  0.55512002    -0.09500
C1737       C  0.29359248  0.72196420  0.63436924     0.64800
H1738       H  0.26903787  0.67324310  0.61981704     0.10200
C1739       C  0.31895017  0.66683824  0.51979218     0.63200
H1740       H  0.34479758  0.71561688  0.53721170     0.07600
F1741       F  0.33835495  0.81603615  0.57033668    -0.19900
F1742       F  0.32972516  0.79204815  0.51458322    -0.16100
F1743       F  0.36828275  0.82163056  0.52633952    -0.19600
F1744       F  0.37138558  0.72308583  0.60535956    -0.23000
F1745       F  0.34913794  0.72044201  0.66128352    -0.24400
F1746       F  0.38908918  0.74851318  0.65878143    -0.18400
F1747       F  0.33817006  0.68251151  0.49448489    -0.20900
F1748       F  0.29900823  0.65253949  0.49440621    -0.22100
F1749       F  0.32559153  0.65209941  0.54101114    -0.19300
F1750       F  0.27285053  0.70659578  0.65691075    -0.19300
F1751       F  0.28864470  0.73706741  0.61031636    -0.23200
F1752       F  0.31210236  0.73594612  0.66243372    -0.24800
C1753       C  0.52659637  0.15846241  0.87184035    -0.11600
C1754       C  0.51943341  0.17272441  0.89333693     0.11000
C1755       C  0.49774954  0.16155529  0.91674334    -0.03400
C1756       C  0.48390734  0.13590926  0.91820649    -0.06100
C1757       C  0.49096084  0.12138322  0.89649305    -0.16900
C1758       C  0.51284649  0.13288924  0.87293167     0.02000
C1759       C  0.53417065  0.19935801  0.88708468     0.12000
C1760       C  0.48905935  0.17669182  0.93902378     0.62600
H1761       H  0.46714067  0.12696460  0.93580451     0.12000
C1762       C  0.52155494  0.11867697  0.84783864     0.54700
H1763       H  0.54306082  0.16776238  0.85348364     0.07800
C1764       C  0.55631883  0.21402416  0.90889984    -0.06000
C1765       C  0.57061584  0.23875327  0.89766207    -0.06800
C1766       C  0.56341503  0.24891445  0.86543140    -0.16300
C1767       C  0.54102033  0.23413770  0.84404339    -0.01900
C1768       C  0.52687957  0.20945102  0.85518308    -0.09500
C1769       C  0.56512219  0.20341915  0.94283595     0.64800
H1770       H  0.58783126  0.25026520  0.91346894     0.10200
C1771       C  0.53219221  0.24412483  0.80918536     0.63200
H1772       H  0.51000803  0.19765229  0.83873097     0.07600
F1773       F  0.52780345  0.10554471  0.87450461    -0.19900
F1774       F  0.54197811  0.13389579  0.82447804    -0.16100
F1775       F  0.50336868  0.10302906  0.82057945    -0.19600
F1776       F  0.48473084  0.19042326  0.91041439    -0.23000
F1777       F  0.50659498  0.19224950  0.96720613    -0.24400
F1778       F  0.46768822  0.16219977  0.96060471    -0.18400
F1779       F  0.51175236  0.22589837  0.78907220    -0.20900
F1780       F  0.55021498  0.25588684  0.77964711    -0.22100
F1781       F  0.52608705  0.26028800  0.82564647    -0.19300
F1782       F  0.58621891  0.22129745  0.96214241    -0.19300
F1783       F  0.56997048  0.18647135  0.92586352    -0.23200
F1784       F  0.54750179  0.19207488  0.97302369    -0.24800
C1785       C  0.12749923  0.60398524  0.58762361    -0.11600
C1786       C  0.13339451  0.58605668  0.57958358     0.11000
C1787       C  0.11492630  0.56147348  0.57458929    -0.03400
C1788       C  0.09071806  0.55562540  0.57738061    -0.06100
C1789       C  0.08430297  0.57305523  0.58817262    -0.16900
C1790       C  0.10317409  0.59800797  0.59288338     0.02000
C1791       C  0.15922035  0.59323398  0.57901284     0.12000
C1792       C  0.12069005  0.54133037  0.56726387     0.62600
H1793       H  0.07656402  0.53682041  0.57255669     0.12000
C1794       C  0.09842944  0.61819735  0.60555410     0.54700
H1795       H  0.14236383  0.62262224  0.59151930     0.07800
C1796       C  0.17323574  0.60228637  0.54255958    -0.06000
C1797       C  0.19732822  0.60727027  0.54370451    -0.06800
C1798       C  0.20732077  0.60329904  0.57995264    -0.16300
C1799       C  0.19342002  0.59473872  0.61680892    -0.01900
C1800       C  0.16941663  0.59003321  0.61568892    -0.09500
C1801       C  0.16284714  0.60701297  0.50312225     0.64800
H1802       H  0.20869774  0.61456233  0.51639762     0.10200
C1803       C  0.20406037  0.59148081  0.65734886     0.63200
H1804       H  0.15817713  0.58344343  0.64324887     0.07600
F1805       F  0.08286690  0.61995149  0.57721569    -0.19900
F1806       F  0.11969228  0.64081268  0.60707717    -0.16100
F1807       F  0.08829941  0.61330879  0.64482924    -0.19600
F1808       F  0.13455521  0.54045520  0.59993049    -0.23000
F1809       F  0.13346272  0.54564126  0.53066602    -0.24400
F1810       F  0.09974396  0.51855250  0.56436677    -0.18400
F1811       F  0.18741964  0.58377005  0.68951734    -0.20900
F1812       F  0.22430259  0.61345662  0.66887660    -0.22100
F1813       F  0.21079456  0.57417092  0.65244316    -0.19300
F1814       F  0.17891581  0.61387716  0.47024184    -0.19300
F1815       F  0.15803876  0.62554042  0.51016159    -0.23200
F1816       F  0.14142663  0.58619089  0.49144706    -0.24800
C1817       C  0.68508776  0.32150198  0.86246203    -0.11600
C1818       C  0.69583037  0.32743922  0.82312507     0.11000
C1819       C  0.68175316  0.32478686  0.78708210    -0.03400
C1820       C  0.65705077  0.31730614  0.79218396    -0.06100
C1821       C  0.64653900  0.31218538  0.83183059    -0.16900
C1822       C  0.66062810  0.31438880  0.86766468     0.02000
C1823       C  0.72212909  0.33681763  0.82200336     0.12000
C1824       C  0.69263666  0.32942945  0.74380058     0.62600
H1825       H  0.64567263  0.31520798  0.76533275     0.12000
C1826       C  0.65027776  0.31051073  0.91125574     0.54700
H1827       H  0.69639316  0.32333156  0.88930218     0.07800
C1828       C  0.73891054  0.36095699  0.83447272    -0.06000
C1829       C  0.76316972  0.36743127  0.84108025    -0.06800
C1830       C  0.77113150  0.35063697  0.83582016    -0.16300
C1831       C  0.75416926  0.32644467  0.82258415    -0.01900
C1832       C  0.72979655  0.32004042  0.81585467    -0.09500
C1833       C  0.73119252  0.37973864  0.84117928     0.64800
H1834       H  0.77603094  0.38574364  0.85167678     0.10200
C1835       C  0.76116391  0.30715987  0.81660774     0.63200
H1836       H  0.71615652  0.30147268  0.80763560     0.07600
F1837       F  0.64033802  0.32516023  0.91699269    -0.19900
F1838       F  0.66802527  0.31639120  0.94166553    -0.16100
F1839       F  0.63243962  0.28634749  0.91670908    -0.19600
F1840       F  0.70137451  0.31390314  0.73649638    -0.23000
F1841       F  0.71162630  0.35328539  0.74032601    -0.24400
F1842       F  0.67549532  0.32542937  0.71318547    -0.18400
F1843       F  0.74230791  0.28606260  0.79897388    -0.20900
F1844       F  0.76678536  0.30098166  0.85482924    -0.22100
F1845       F  0.78101334  0.31589284  0.79048526    -0.19300
F1846       F  0.75077959  0.40242034  0.85177591    -0.19300
F1847       F  0.71438322  0.37238513  0.87289114    -0.23200
F1848       F  0.72083350  0.38245024  0.80501310    -0.24800
C1849       C  0.09046683  0.46163592  0.89311391    -0.11600
C1850       C  0.06925289  0.44109795  0.87806772     0.11000
C1851       C  0.07137581  0.42280255  0.85704402    -0.03400
C1852       C  0.09431655  0.42447327  0.85554949    -0.06100
C1853       C  0.11564064  0.44448978  0.87212305    -0.16900
C1854       C  0.11375417  0.46407934  0.88980852     0.02000
C1855       C  0.04508269  0.43928228  0.88467104     0.12000
C1856       C  0.04972963  0.40216128  0.83440106     0.62600
H1857       H  0.09570541  0.40998846  0.84093176     0.12000
C1858       C  0.13585879  0.48782732  0.90458071     0.54700
H1859       H  0.08852939  0.47577474  0.90791387     0.07800
C1860       C  0.03064804  0.42762205  0.92019648    -0.06000
C1861       C  0.00726064  0.42484007  0.92288274    -0.06800
C1862       C  0.99788599  0.43358377  0.89177422    -0.16300
C1863       C  0.01293542  0.44651395  0.85734955    -0.01900
C1864       C  0.03639264  0.44926278  0.85463757    -0.09500
C1865       C  0.03980796  0.41796387  0.95507107     0.64800
H1866       H  0.99566712  0.41507039  0.94900175     0.10200
C1867       C  0.00380641  0.45610712  0.82237722     0.63200
H1868       H  0.04792068  0.45858918  0.82823053     0.07600
F1869       F  0.14516082  0.48383727  0.94095767    -0.19900
F1870       F  0.12999258  0.50554750  0.91279400    -0.16100
F1871       F  0.15357924  0.49704670  0.87414640    -0.19600
F1872       F  0.04273070  0.41177982  0.80202622    -0.23000
F1873       F  0.03034006  0.38960954  0.86109677    -0.24400
F1874       F  0.05535143  0.38561887  0.81787778    -0.18400
F1875       F  0.02076148  0.46685110  0.79090246    -0.20900
F1876       F  0.99905875  0.47348505  0.83771164    -0.22100
F1877       F  0.98268959  0.43709844  0.80513241    -0.19300
F1878       F  0.02300943  0.40753904  0.98686823    -0.19300
F1879       F  0.06115211  0.43689501  0.97178632    -0.23200
F1880       F  0.04430721  0.40038157  0.94001917    -0.24800
C1881       C  0.26559777  0.45295858  0.95286454    -0.11600
C1882       C  0.26254070  0.47106761  0.97189982     0.11000
C1883       C  0.26689267  0.46572388  0.53366676    -0.03400
C1884       C  0.28625167  0.46174411  0.54121429    -0.06100
C1885       C  0.29070043  0.44679133  0.51569759    -0.16900
C1886       C  0.27664152  0.43681468  0.47919622     0.02000
C1887       C  0.24151755  0.47332836  0.95843891     0.12000
C1888       C  0.26323163  0.48085457  0.56573506     0.62600
H1889       H  0.29734732  0.46943886  0.56894700     0.12000
C1890       C  0.28424380  0.42606023  0.94892018     0.54700
H1891       H  0.25383800  0.44305057  0.92672119     0.07800
C1892       C  0.24304982  0.48850663  0.92484692    -0.06000
C1893       C  0.22137725  0.48649271  0.90936811    -0.06800
C1894       C  0.19864011  0.46942718  0.92603663    -0.16300
C1895       C  0.19756716  0.45679851  0.96302949    -0.01900
C1896       C  0.21919049  0.45877879  0.97864148    -0.09500
C1897       C  0.26728826  0.50580807  0.90449448     0.64800
H1898       H  0.22170467  0.49603845  0.88105597     0.10200
C1899       C  0.17325451  0.43924884  0.98289396     0.63200
H1900       H  0.21856455  0.44772091  0.00497659     0.07600
F1901       F  0.30785453  0.43476277  0.93566995    -0.19900
F1902       F  0.26874802  0.41625046  0.91481717    -0.16100
F1903       F  0.28003307  0.40156536  0.47198321    -0.19600
F1904       F  0.26131697  0.47070349  0.60480675    -0.23000
F1905       F  0.24272530  0.48257296  0.55895476    -0.24400
F1906       F  0.28340892  0.50408517  0.56521486    -0.18400
F1907       F  0.16032515  0.41881371  0.95805182    -0.20900
F1908       F  0.15981159  0.45061236  0.98730881    -0.22100
F1909       F  0.17630764  0.43177748  0.02196564    -0.19300
F1910       F  0.26456887  0.51814593  0.87110759    -0.19300
F1911       F  0.27781844  0.49293324  0.89008187    -0.23200
F1912       F  0.28283137  0.52289672  0.93324928    -0.24800
C1913       C  0.19785582  0.41582405  0.76598112    -0.11600
C1914       C  0.20359242  0.40118061  0.79113309     0.11000
C1915       C  0.18937762  0.38983142  0.82690817    -0.03400
C1916       C  0.17111022  0.39503592  0.83794937    -0.06100
C1917       C  0.16765004  0.41225943  0.81587861    -0.16900
C1918       C  0.17999712  0.42147151  0.77778908     0.02000
C1919       C  0.22639850  0.40079095  0.78191395     0.12000
C1920       C  0.19502764  0.37424658  0.85562922     0.62600
H1921       H  0.16189117  0.38846029  0.86746988     0.12000
C1922       C  0.17516187  0.43838983  0.75123779     0.54700
H1923       H  0.20867863  0.42419770  0.73843926     0.07800
C1924       C  0.22760498  0.38637357  0.74973975    -0.06000
C1925       C  0.25063425  0.39015312  0.73862422    -0.06800
C1926       C  0.27252988  0.40826824  0.75748595    -0.16300
C1927       C  0.27111153  0.42142169  0.79162722    -0.01900
C1928       C  0.24798106  0.41738154  0.80330738    -0.09500
C1929       C  0.20485563  0.36764894  0.72624114     0.64800
H1930       H  0.25193798  0.38008820  0.71271807     0.10200
C1931       C  0.29393039  0.44051186  0.81408721     0.63200
H1932       H  0.24666353  0.42812873  0.82800924     0.07600
F1933       F  0.18792849  0.44442396  0.71424305    -0.19900
F1934       F  0.18196679  0.45975419  0.77256630    -0.16100
F1935       F  0.15051340  0.42690546  0.74175996    -0.19600
F1936       F  0.21721204  0.38875608  0.87542237    -0.23000
F1937       F  0.19614579  0.35644283  0.83319064    -0.24400
F1938       F  0.17735070  0.36269937  0.88578957    -0.18400
F1939       F  0.28860474  0.45206200  0.84503637    -0.20900
F1940       F  0.30947831  0.45811611  0.78618739    -0.22100
F1941       F  0.30564436  0.42947049  0.83235461    -0.19300
F1942       F  0.21031191  0.35619300  0.69530586    -0.19300
F1943       F  0.19338301  0.37880369  0.70760419    -0.23200
F1944       F  0.18884356  0.34988606  0.75336777    -0.24800
C1945       C  0.82063129  0.48118218  0.59992299    -0.11600
C1946       C  0.80920471  0.47981029  0.63777331     0.11000
C1947       C  0.82150488  0.48123644  0.67574435    -0.03400
C1948       C  0.84536299  0.48500702  0.67439668    -0.06100
C1949       C  0.85719214  0.48748411  0.63646794    -0.16900
C1950       C  0.84472573  0.48571277  0.59857796     0.02000
C1951       C  0.78481342  0.47799709  0.63647780     0.12000
C1952       C  0.80957499  0.47917605  0.71742289     0.62600
H1953       H  0.85532815  0.48687415  0.70304852     0.12000
C1954       C  0.85739939  0.49008263  0.55699177     0.54700
H1955       H  0.81085030  0.47982220  0.57128788     0.07800
C1956       C  0.78239864  0.49872386  0.62973996    -0.06000
C1957       C  0.75883362  0.49570987  0.62908884    -0.06800
C1958       C  0.73763834  0.47270022  0.63376339    -0.16300
C1959       C  0.74010083  0.45188016  0.63998989    -0.01900
C1960       C  0.76372962  0.45500564  0.64135091    -0.09500
C1961       C  0.80462403  0.52391317  0.62276690     0.64800
H1962       H  0.75670780  0.51134874  0.62379845     0.10200
C1963       C  0.71807893  0.42649558  0.64604078     0.63200
H1964       H  0.76600325  0.43940433  0.64588735     0.07600
F1965       F  0.84219466  0.48780620  0.52395808    -0.19900
F1966       F  0.86487391  0.47336837  0.55157387    -0.16100
F1967       F  0.87752658  0.51345249  0.55595872    -0.19600
F1968       F  0.78946141  0.45599903  0.72175911    -0.23000
F1969       F  0.80217568  0.49611200  0.71976280    -0.24400
F1970       F  0.82538358  0.48329655  0.75047069    -0.18400
F1971       F  0.70453675  0.41872233  0.60956454    -0.20900
F1972       F  0.70369261  0.42682257  0.67763367    -0.22100
F1973       F  0.72486134  0.40962901  0.65672787    -0.19300
F1974       F  0.79837106  0.54174367  0.61955497    -0.19300
F1975       F  0.81601791  0.52409366  0.58628004    -0.23200
F1976       F  0.82094028  0.53001156  0.65561444    -0.24800
C1977       C  0.65360559  0.51758129  0.67488985    -0.11600
C1978       C  0.64194344  0.50557415  0.71174276     0.11000
C1979       C  0.65030472  0.49162133  0.73349738    -0.03400
C1980       C  0.66912534  0.48901656  0.71599638    -0.06100
C1981       C  0.67929930  0.49933373  0.67730101    -0.16900
C1982       C  0.67238463  0.51502060  0.65765307     0.02000
C1983       C  0.61964965  0.50601539  0.72456120     0.12000
C1984       C  0.63860312  0.47847407  0.77393165     0.62600
H1985       H  0.67422216  0.47675805  0.73025146     0.12000
C1986       C  0.68337663  0.52832598  0.61707715     0.54700
H1987       H  0.64727825  0.52827872  0.65838322     0.07800
C1988       C  0.62087558  0.52503339  0.74897443    -0.06000
C1989       C  0.59909323  0.52235550  0.76474964    -0.06800
C1990       C  0.57617009  0.50207619  0.75482170    -0.16300
C1991       C  0.57477584  0.48445400  0.72660177    -0.01900
C1992       C  0.59663922  0.48671795  0.71183823    -0.09500
C1993       C  0.64498032  0.54819483  0.75764488     0.64800
H1994       H  0.59981389  0.53567111  0.78642099     0.10200
C1995       C  0.55031064  0.46264334  0.71440475     0.63200
H1996       H  0.59598302  0.47283343  0.69167591     0.07600
F1997       F  0.70279589  0.52602408  0.60450016    -0.19900
F1998       F  0.69182566  0.55294397  0.62215999    -0.16100
F1999       F  0.66568087  0.51926877  0.58603506    -0.19600
F2000       F  0.61389231  0.46257764  0.76791885    -0.23000
F2001       F  0.64193461  0.49527561  0.80412261    -0.24400
F2002       F  0.64869465  0.46501994  0.78864094    -0.18400
F2003       F  0.55270812  0.44780499  0.68596191    -0.20900
F2004       F  0.53572519  0.47062692  0.69659388    -0.22100
F2005       F  0.53897035  0.44884081  0.74934188    -0.19300
F2006       F  0.64208088  0.56428100  0.78227481    -0.19300
F2007       F  0.65503281  0.55976591  0.72033362    -0.23200
F2008       F  0.66095175  0.54279180  0.77777487    -0.24800
C2009       C  0.59155122  0.46256712  0.54074175    -0.11600
C2010       C  0.59258778  0.44292777  0.52332632     0.11000
C2011       C  0.57386549  0.42348113  0.00170707    -0.03400
C2012       C  0.55650570  0.42913795  0.98661328    -0.06100
C2013       C  0.55521800  0.44908002  0.00192099    -0.16900
C2014       C  0.57072411  0.46300386  0.03522035     0.02000
C2015       C  0.61453904  0.44144981  0.53266455     0.12000
C2016       C  0.57321092  0.40114967  0.98383769     0.62600
H2017       H  0.54434524  0.41836035  0.96139741     0.12000
C2018       C  0.56973343  0.48441056  0.05323849     0.54700
H2019       H  0.60564966  0.47425748  0.56283008     0.07800
C2020       C  0.63715702  0.45743380  0.51347823    -0.06000
C2021       C  0.65831485  0.45831095  0.52923261    -0.06800
C2022       C  0.65726458  0.44428221  0.56400774    -0.16300
C2023       C  0.63421122  0.42570004  0.57824164    -0.01900
C2024       C  0.61313870  0.42511092  0.56343704    -0.09500
C2025       C  0.63623347  0.46563793  0.98187663     0.64800
H2026       H  0.67606626  0.47265052  0.51884536     0.10200
C2027       C  0.63157322  0.40811856  0.61254013     0.63200
H2028       H  0.59560687  0.41246588  0.57708853     0.07600
F2029       F  0.57471902  0.50162138  0.02245893    -0.19900
F2030       F  0.59621658  0.50573666  0.56656201    -0.16100
F2031       F  0.54673916  0.47637935  0.06893116    -0.19600
F2032       F  0.55133037  0.38560445  0.47604470    -0.23000
F2033       F  0.59103655  0.39715862  0.00026544    -0.24400
F2034       F  0.57619557  0.40378734  0.94119225    -0.18400
F2035       F  0.62400691  0.41390330  0.64864249    -0.20900
F2036       F  0.65330804  0.40880259  0.62045288    -0.22100
F2037       F  0.61432716  0.38458366  0.60077721    -0.19300
F2038       F  0.65945966  0.47798479  0.96528651    -0.19300
F2039       F  0.62921626  0.48250656  0.98963618    -0.23200
F2040       F  0.62068038  0.44918304  0.95240743    -0.24800
C2041       C  0.43771577  0.57479800  0.91428617    -0.11600
C2042       C  0.45089251  0.59375709  0.88526328     0.11000
C2043       C  0.46571997  0.59081996  0.85587095    -0.03400
C2044       C  0.46799615  0.56993670  0.85830422    -0.06100
C2045       C  0.45573643  0.55159483  0.88831535    -0.16900
C2046       C  0.43962046  0.55352049  0.91586530     0.02000
C2047       C  0.45039708  0.61719012  0.88802358     0.12000
C2048       C  0.47928330  0.60965705  0.82197202     0.62600
H2049       H  0.48007544  0.56802571  0.83724122     0.12000
C2050       C  0.42534683  0.53358040  0.94764796     0.54700
H2051       H  0.42646645  0.57711792  0.93660943     0.07800
C2052       C  0.43048556  0.61943744  0.87373495    -0.06000
C2053       C  0.43199872  0.64239028  0.87627737    -0.06800
C2054       C  0.45287976  0.66351421  0.89183443    -0.16300
C2055       C  0.47318731  0.66127516  0.90473969    -0.01900
C2056       C  0.47106558  0.63801589  0.90412734    -0.09500
C2057       C  0.40759917  0.59763522  0.85607605     0.64800
H2058       H  0.41653144  0.64387216  0.86622290     0.10200
C2059       C  0.49766460  0.68327952  0.91675274     0.63200
H2060       H  0.48602767  0.63596914  0.91535296     0.07600
F2061       F  0.40976229  0.51194516  0.92728198    -0.19900
F2062       F  0.41146998  0.53922572  0.97290442    -0.16100
F2063       F  0.44122438  0.53024997  0.97277495    -0.19600
F2064       F  0.49669771  0.63154683  0.83941116    -0.23000
F2065       F  0.46300405  0.61329684  0.79871012    -0.24400
F2066       F  0.49109870  0.60224366  0.79509045    -0.18400
F2067       F  0.49609905  0.69203029  0.95515353    -0.20900
F2068       F  0.50463466  0.70139164  0.88689532    -0.22100
F2069       F  0.51586527  0.67751069  0.91936545    -0.19300
F2070       F  0.39147987  0.60418400  0.83991705    -0.19300
F2071       F  0.39583069  0.58058221  0.88719435    -0.23200
F2072       F  0.41359806  0.58710110  0.82440860    -0.24800
C2073       C  0.47859428  0.77423949  0.99698345    -0.11600
C2074       C  0.48929827  0.79420698  0.96934164     0.11000
C2075       C  0.50019228  0.79236952  0.93247526    -0.03400
C2076       C  0.49696478  0.76949572  0.92172645    -0.06100
C2077       C  0.48231010  0.74848101  0.94563422    -0.16900
C2078       C  0.47482988  0.75120560  0.98543998     0.02000
C2079       C  0.48638894  0.81560837  0.97757880     0.12000
C2080       C  0.51372425  0.81401572  0.90332428     0.62600
H2081       H  0.50278229  0.76711519  0.89143846     0.12000
C2082       C  0.46107741  0.72922836  0.01363662     0.54700
H2083       H  0.45281937  0.76715936  0.53223191     0.07800
C2084       C  0.45659298  0.81125635  0.47394773    -0.06000
C2085       C  0.45558947  0.83191420  0.48613145    -0.06800
C2086       C  0.47322645  0.84941757  0.51299093    -0.16300
C2087       C  0.49359411  0.84746264  0.52543115    -0.01900
C2088       C  0.50555018  0.83642412  0.99670033    -0.09500
C2089       C  0.44361291  0.79371992  0.94429678     0.64800
H2090       H  0.43979287  0.83332571  0.47801368     0.10200
C2091       C  0.51454541  0.86658065  0.55168904     0.63200
H2092       H  0.52260215  0.83706921  0.00325711     0.07600
F2093       F  0.43858004  0.71305543  0.99616831    -0.19900
F2094       F  0.45737793  0.73581741  0.05264555    -0.16100
F2095       F  0.47435224  0.71765122  0.01856077    -0.19600
F2096       F  0.53315664  0.83292302  0.92432486    -0.23000
F2097       F  0.49831915  0.82186064  0.88900066    -0.24400
F2098       F  0.52279015  0.80820886  0.86910931    -0.18400
F2099       F  0.51480328  0.85675129  0.59014339    -0.20900
F2100       F  0.51312687  0.88730761  0.55774893    -0.22100
F2101       F  0.54459316  0.88634281  0.00125332    -0.19300
F2102       F  0.42107297  0.79969649  0.43124965    -0.19300
F2103       F  0.42209802  0.77116180  0.47115003    -0.23200
F2104       F  0.45206667  0.78856932  0.90864156    -0.24800
C2105       C  0.43852033  0.80094829  0.80634554    -0.11600
C2106       C  0.41827301  0.77872356  0.79337753     0.11000
C2107       C  0.40021790  0.77890391  0.76764386    -0.03400
C2108       C  0.40445869  0.80138259  0.75171484    -0.06100
C2109       C  0.42559751  0.82354761  0.76220371    -0.16900
C2110       C  0.44255061  0.82352569  0.79109139     0.02000
C2111       C  0.41721576  0.75565327  0.80590050     0.12000
C2112       C  0.37664213  0.75547875  0.75730343     0.62600
H2113       H  0.39163236  0.80179621  0.72971724     0.12000
C2114       C  0.46521829  0.84708075  0.80429123     0.54700
H2115       H  0.45172556  0.80035034  0.82712698     0.07800
C2116       C  0.43103827  0.74715728  0.78522432    -0.06000
C2117       C  0.43241022  0.72749880  0.80275162    -0.06800
C2118       C  0.42118378  0.71692481  0.84071848    -0.16300
C2119       C  0.40486757  0.72337294  0.85802559    -0.01900
C2120       C  0.40342018  0.74292854  0.84069905    -0.09500
C2121       C  0.44571360  0.75991978  0.74658815     0.64800
H2122       H  0.44495794  0.72254227  0.79000281     0.10200
C2123       C  0.38935726  0.71061872  0.89572896     0.63200
H2124       H  0.39236022  0.74907188  0.85575260     0.07600
F2125       F  0.47920183  0.85900254  0.76984958    -0.19900
F2126       F  0.47952918  0.84288570  0.83196815    -0.16100
F2127       F  0.45844010  0.86201416  0.82362741    -0.19600
F2128       F  0.36338355  0.74588594  0.79332593    -0.23000
F2129       F  0.38154277  0.73855971  0.74040643    -0.24400
F2130       F  0.36237013  0.75942939  0.72913050    -0.18400
F2131       F  0.39465397  0.72733919  0.92725773    -0.20900
F2132       F  0.39292926  0.69224392  0.91076094    -0.22100
F2133       F  0.36502453  0.70027593  0.88459855    -0.19300
F2134       F  0.45674060  0.74791285  0.73023971    -0.19300
F2135       F  0.46382587  0.78345196  0.75638277    -0.23200
F2136       F  0.43064533  0.76078984  0.71613668    -0.24800
C2137       C  0.54640992  0.06560491  0.62679272    -0.11600
C2138       C  0.56885862  0.07113547  0.64477947     0.11000
C2139       C  0.57109435  0.05218848  0.66358671    -0.03400
C2140       C  0.55080100  0.02831726  0.66343755    -0.06100
C2141       C  0.52829608  0.02227149  0.64448023    -0.16900
C2142       C  0.52608986  0.04146830  0.62560441     0.02000
C2143       C  0.58979811  0.09692914  0.64405713     0.12000
C2144       C  0.59490138  0.05704958  0.68374252     0.62600
H2145       H  0.55253972  0.01402989  0.67857928     0.12000
C2146       C  0.50295065  0.03685563  0.60321337     0.54700
H2147       H  0.54508396  0.08050080  0.61316586     0.07800
C2148       C  0.60452739  0.10742679  0.60837282    -0.06000
C2149       C  0.62544326  0.13096615  0.61147287    -0.06800
C2150       C  0.63245380  0.14395750  0.64916057    -0.16300
C2151       C  0.61724574  0.13374326  0.68447592    -0.01900
C2152       C  0.59586624  0.11059342  0.68092929    -0.09500
C2153       C  0.59854383  0.09362579  0.56746984     0.64800
H2154       H  0.63707191  0.13910424  0.58469650     0.10200
C2155       C  0.62383254  0.14673077  0.72619316     0.63200
H2156       H  0.58422895  0.10239272  0.70768935     0.07600
F2157       F  0.49755513  0.02055124  0.57092208    -0.19900
F2158       F  0.50532541  0.05806451  0.58643285    -0.16100
F2159       F  0.48374957  0.02757558  0.63077274    -0.19600
F2160       F  0.59987701  0.07146838  0.71863369    -0.23000
F2161       F  0.61385376  0.06883555  0.65588833    -0.24400
F2162       F  0.59390662  0.03566527  0.69607690    -0.18400
F2163       F  0.63032607  0.17090259  0.72105889    -0.20900
F2164       F  0.64312762  0.14558485  0.74381359    -0.22100
F2165       F  0.60452752  0.13605510  0.75368379    -0.19300
F2166       F  0.61566283  0.10685723  0.53720587    -0.19300
F2167       F  0.57605232  0.08884817  0.55278000    -0.23200
F2168       F  0.59799729  0.07181276  0.57329502    -0.24800
C2169       C  0.80487177  0.25899943  0.76310381    -0.11600
C2170       C  0.78615264  0.25833955  0.73880351     0.11000
C2171       C  0.78978812  0.28019258  0.71989070    -0.03400
C2172       C  0.81146128  0.30237086  0.72869301    -0.06100
C2173       C  0.82917853  0.30333216  0.75618062    -0.16900
C2174       C  0.82653939  0.28113747  0.77156533     0.02000
C2175       C  0.76254186  0.23489818  0.73426505     0.12000
C2176       C  0.77039133  0.28025311  0.69190855     0.62600
H2177       H  0.81351206  0.31945662  0.71774718     0.12000
C2178       C  0.84568424  0.28007379  0.79851827     0.54700
H2179       H  0.80222275  0.24220380  0.77680924     0.07800
C2180       C  0.75887001  0.21774397  0.70313838    -0.06000
C2181       C  0.73478225  0.20027905  0.69159076    -0.06800
C2182       C  0.71471339  0.20002057  0.70978923    -0.16300
C2183       C  0.71844813  0.21439100  0.74552703    -0.01900
C2184       C  0.74256481  0.23152372  0.75771767    -0.09500
C2185       C  0.78025169  0.21901610  0.68049233     0.64800
H2186       H  0.73152273  0.18886186  0.66459596     0.10200
C2187       C  0.69702990  0.21276615  0.76862994     0.63200
H2188       H  0.74589849  0.24412883  0.78285995     0.07600
F2189       F  0.85222632  0.26469183  0.78011386    -0.19900
F2190       F  0.83611953  0.27089983  0.83739145    -0.16100
F2191       F  0.86659567  0.30267648  0.80346016    -0.19600
F2192       F  0.74930103  0.27290118  0.71411429    -0.23000
F2193       F  0.76522653  0.26450277  0.65887401    -0.24400
F2194       F  0.77793695  0.30324624  0.67584861    -0.18400
F2195       F  0.70457353  0.22730945  0.80387182    -0.20900
F2196       F  0.68150751  0.18889710  0.78099932    -0.22100
F2197       F  0.68435298  0.22016752  0.74307416    -0.19300
F2198       F  0.77266499  0.20080506  0.65088204    -0.19300
F2199       F  0.79520461  0.21625841  0.70881070    -0.23200
F2200       F  0.79354601  0.24131355  0.66061339    -0.24800
C2201       C  0.71133117  0.26969830  0.57701658    -0.11600
C2202       C  0.72553319  0.26785869  0.54587081     0.11000
C2203       C  0.72081877  0.24443387  0.53375745    -0.03400
C2204       C  0.70257371  0.22363393  0.55466569    -0.06100
C2205       C  0.68991719  0.22568461  0.58834700    -0.16900
C2206       C  0.69365428  0.24896932  0.59868055     0.02000
C2207       C  0.74717191  0.29064878  0.53023932     0.12000
C2208       C  0.73614701  0.24152068  0.50092181     0.62600
H2209       H  0.70010201  0.20583597  0.54812694     0.12000
C2210       C  0.68113227  0.25303713  0.63499522     0.54700
H2211       H  0.71514347  0.28765668  0.58630784     0.07800
C2212       C  0.75136642  0.30377134  0.98918971    -0.06000
C2213       C  0.77417797  0.32309094  0.97669310    -0.06800
C2214       C  0.79592359  0.32823729  0.99722131    -0.16300
C2215       C  0.79169724  0.31804992  0.53446056    -0.01900
C2216       C  0.76970348  0.29874443  0.55050804    -0.09500
C2217       C  0.72848132  0.29786923  0.96456585     0.64800
H2218       H  0.77543452  0.33341395  0.94885960     0.10200
C2219       C  0.81573042  0.32564184  0.55654164     0.63200
H2220       H  0.76997864  0.28911418  0.57829442     0.07600
F2221       F  0.67134273  0.26704633  0.62202479    -0.19900
F2222       F  0.69814224  0.26533289  0.66623419    -0.16100
F2223       F  0.66236265  0.23145019  0.65115214    -0.19600
F2224       F  0.76019238  0.25258805  0.51417266    -0.23000
F2225       F  0.74379649  0.25377109  0.95737851    -0.24400
F2226       F  0.72807937  0.21719602  0.49308370    -0.18400
F2227       F  0.82590206  0.34939987  0.57050389    -0.20900
F2228       F  0.83183007  0.31478183  0.03065843    -0.22100
F2229       F  0.81265771  0.31085905  0.59055909    -0.19300
F2230       F  0.73352792  0.31393885  0.93171445    -0.19300
F2231       F  0.71205182  0.29929585  0.99036396    -0.23200
F2232       F  0.71772174  0.27455324  0.94838523    -0.24800
C2233       C  0.24833553  0.82064046  0.89818171    -0.11600
C2234       C  0.26919900  0.82078880  0.88431666     0.11000
C2235       C  0.26706590  0.79856333  0.87132550    -0.03400
C2236       C  0.24372182  0.77722811  0.87013608    -0.06100
C2237       C  0.22250987  0.77706064  0.88268265    -0.16900
C2238       C  0.22499456  0.79927575  0.89779940     0.02000
C2239       C  0.29251886  0.84493091  0.88125536     0.12000
C2240       C  0.28929923  0.79735615  0.85852735     0.62600
H2241       H  0.24190197  0.76031254  0.85934010     0.12000
C2242       C  0.20338413  0.80095541  0.91309386     0.54700
H2243       H  0.25053720  0.83776247  0.90879040     0.07800
C2244       C  0.29696403  0.86068554  0.84684053    -0.06000
C2245       C  0.31828454  0.88394794  0.84660990    -0.06800
C2246       C  0.33486522  0.89252756  0.88029304    -0.16300
C2247       C  0.33045904  0.87679423  0.91493901    -0.01900
C2248       C  0.30937458  0.85309882  0.91460098    -0.09500
C2249       C  0.27827499  0.85369775  0.81190976     0.64800
H2250       H  0.32154009  0.89628686  0.82080511     0.10200
C2251       C  0.34717573  0.88539828  0.95293025     0.63200
H2252       H  0.30538026  0.84103109  0.94107979     0.07600
F2253       F  0.20958648  0.82482712  0.92073974    -0.19900
F2254       F  0.19498652  0.78807024  0.94998836    -0.16100
F2255       F  0.18486444  0.79163092  0.88350640    -0.19600
F2256       F  0.30615195  0.80541314  0.89084355    -0.23000
F2257       F  0.29990701  0.81189972  0.82394245    -0.24400
F2258       F  0.28330192  0.77376329  0.84880001    -0.18400
F2259       F  0.33917979  0.86760231  0.98360981    -0.20900
F2260       F  0.34807234  0.90580788  0.96964311    -0.22100
F2261       F  0.37041732  0.89121028  0.94172706    -0.19300
F2262       F  0.28721240  0.87024108  0.77927658    -0.19300
F2263       F  0.25778644  0.85315172  0.82708441    -0.23200
F2264       F  0.27164813  0.83094825  0.79629437    -0.24800
C2265       C  0.06399177  0.63680702  0.95528721    -0.11600
C2266       C  0.06887790  0.65938927  0.97105741     0.11000
C2267       C  0.05018615  0.65859486  0.49303309    -0.03400
C2268       C  0.03024310  0.63614511  0.50650756    -0.06100
C2269       C  0.02780437  0.61362350  0.49561544    -0.16900
C2270       C  0.04426169  0.61335993  0.46670073     0.02000
C2271       C  0.09237971  0.68155436  0.95972331     0.12000
C2272       C  0.05260982  0.68248673  0.50688307     0.62600
H2273       H  0.01725172  0.63600638  0.52813451     0.12000
C2274       C  0.04085355  0.59053521  0.95477745     0.54700
H2275       H  0.07663412  0.63671269  0.93312656     0.07800
C2276       C  0.11475829  0.68716558  0.97932154    -0.06000
C2277       C  0.13673025  0.70641963  0.96329798    -0.06800
C2278       C  0.13693061  0.71943334  0.92778600    -0.16300
C2279       C  0.11450811  0.71525164  0.91071798    -0.01900
C2280       C  0.09253657  0.69612564  0.92666348    -0.09500
C2281       C  0.11559959  0.67201588  0.01541481     0.64800
H2282       H  0.15404504  0.70946720  0.97526153     0.10200
C2283       C  0.11304039  0.72949730  0.87386575     0.63200
H2284       H  0.07539711  0.69185178  0.91194711     0.07600
F2285       F  0.04282605  0.57755155  0.98783757    -0.19900
F2286       F  0.05808202  0.59389894  0.92548402    -0.16100
F2287       F  0.01918661  0.57560835  0.43286996    -0.19600
F2288       F  0.05139267  0.69510720  0.47257172    -0.23000
F2289       F  0.07470981  0.69664393  0.52716177    -0.24400
F2290       F  0.03419176  0.67873149  0.53384434    -0.18400
F2291       F  0.10359597  0.71427790  0.83967322    -0.20900
F2292       F  0.13554474  0.74928155  0.86356323    -0.22100
F2293       F  0.09775487  0.73821853  0.88346815    -0.19300
F2294       F  0.13907247  0.68139318  0.03098493    -0.19300
F2295       F  0.10726595  0.64836801  0.00249123    -0.23200
F2296       F  0.10026118  0.66947681  0.54456084    -0.24800
C2297       C  0.10272954  0.61017145  0.75146691    -0.11600
C2298       C  0.10574237  0.63109583  0.77132012     0.11000
C2299       C  0.08472011  0.63208546  0.78263187    -0.03400
C2300       C  0.06157616  0.61330050  0.76927192    -0.06100
C2301       C  0.05881669  0.59319984  0.74720192    -0.16900
C2302       C  0.07936624  0.59071553  0.74062251     0.02000
C2303       C  0.13082332  0.65182659  0.78051981     0.12000
C2304       C  0.08661220  0.65313177  0.80780014     0.62600
H2305       H  0.04557068  0.61476104  0.77412344     0.12000
C2306       C  0.07637048  0.56758191  0.72177496     0.54700
H2307       H  0.11879044  0.60938264  0.74369638     0.07800
C2308       C  0.14451850  0.65142325  0.81526881    -0.06000
C2309       C  0.16312502  0.67387760  0.83143256    -0.06800
C2310       C  0.16782169  0.69625305  0.81429318    -0.16300
C2311       C  0.15690710  0.69628976  0.77574716    -0.01900
C2312       C  0.13893324  0.67382233  0.75864667    -0.09500
C2313       C  0.13841660  0.62762944  0.83677883     0.64800
H2314       H  0.17182129  0.67421589  0.86084250     0.10200
C2315       C  0.16180509  0.72010015  0.75614711     0.63200
H2316       H  0.12886312  0.67359969  0.73104175     0.07600
F2317       F  0.06064317  0.54774452  0.74594715    -0.19900
F2318       F  0.09835752  0.56820281  0.71942680    -0.16100
F2319       F  0.06672699  0.56440666  0.68217950    -0.19600
F2320       F  0.09724571  0.67424849  0.78418720    -0.23000
F2321       F  0.10049874  0.65674491  0.84340833    -0.24400
F2322       F  0.06389267  0.64857647  0.82004441    -0.18400
F2323       F  0.15164785  0.71657785  0.71660845    -0.20900
F2324       F  0.18670897  0.73591206  0.75306900    -0.22100
F2325       F  0.15197824  0.73070049  0.78058336    -0.19300
F2326       F  0.15309583  0.63154848  0.87145431    -0.19300
F2327       F  0.14194524  0.61303353  0.80950977    -0.23200
F2328       F  0.11438393  0.61535169  0.84957415    -0.24800
C2329       C  0.40720909  0.33072895  0.66358712    -0.11600
C2330       C  0.39935180  0.31477710  0.62927917     0.11000
C2331       C  0.38843324  0.31970392  0.59467643    -0.03400
C2332       C  0.38557390  0.34027570  0.59584135    -0.06100
C2333       C  0.39314228  0.35610219  0.63028023    -0.16900
C2334       C  0.40416287  0.35126554  0.66486691     0.02000
C2335       C  0.40114270  0.29212861  0.63137379     0.12000
C2336       C  0.37924870  0.30294141  0.55698484     0.62600
H2337       H  0.37657039  0.34376141  0.57014765     0.12000
C2338       C  0.41108818  0.36667649  0.70405568     0.54700
H2339       H  0.41500862  0.32643470  0.69012613     0.07800
C2340       C  0.42324010  0.29239353  0.62441818    -0.06000
C2341       C  0.42284403  0.26998129  0.62345452    -0.06800
C2342       C  0.40134802  0.24748231  0.63024685    -0.16300
C2343       C  0.37965499  0.24738537  0.64008357    -0.01900
C2344       C  0.37992008  0.26972732  0.64018716    -0.09500
C2345       C  0.44719909  0.31622022  0.61865596     0.64800
H2346       H  0.43945275  0.26982345  0.61744733     0.10200
C2347       C  0.35646015  0.22388243  0.65139477     0.63200
H2348       H  0.36336207  0.26987273  0.64677655     0.07600
F2349       F  0.42939618  0.39031058  0.69542633    -0.19900
F2350       F  0.41937142  0.35754847  0.73539536    -0.16100
F2351       F  0.39092765  0.36698284  0.71875936    -0.19600
F2352       F  0.35941173  0.28061179  0.56791318    -0.23000
F2353       F  0.39751569  0.29942676  0.54215421    -0.24400
F2354       F  0.37200944  0.31256773  0.52487033    -0.18400
F2355       F  0.33903764  0.22835175  0.66747436    -0.20900
F2356       F  0.36148889  0.21121978  0.68125014    -0.22100
F2357       F  0.34676617  0.20950634  0.61631402    -0.19300
F2358       F  0.46635118  0.31233842  0.61152934    -0.19300
F2359       F  0.45274145  0.33025342  0.65420622    -0.23200
F2360       F  0.44543731  0.32902255  0.58512912    -0.24800
C2361       C  0.42558249  0.16402345  0.73794268    -0.11600
C2362       C  0.44183349  0.15899577  0.71726358     0.11000
C2363       C  0.45578224  0.17408392  0.68389296    -0.03400
C2364       C  0.45154470  0.19264692  0.67003742    -0.06100
C2365       C  0.43304945  0.19564832  0.68719347    -0.16900
C2366       C  0.42072681  0.18202767  0.72305418     0.02000
C2367       C  0.44202795  0.13645139  0.72896146     0.12000
C2368       C  0.47405654  0.16966132  0.66170629     0.62600
H2369       H  0.46038431  0.20281444  0.64204927     0.12000
C2370       C  0.40112780  0.18528416  0.74319636     0.54700
H2371       H  0.41544218  0.15253068  0.76400577     0.07800
C2372       C  0.45674833  0.13566980  0.76162357    -0.06000
C2373       C  0.45263419  0.11281976  0.77490666    -0.06800
C2374       C  0.43375970  0.09081070  0.75798017    -0.16300
C2375       C  0.42015645  0.09161448  0.72352323    -0.01900
C2376       C  0.42478834  0.11460265  0.70924492    -0.09500
C2377       C  0.47600565  0.15795092  0.78509850     0.64800
H2378       H  0.46313009  0.11207971  0.80119273     0.10200
C2379       C  0.39961093  0.06844846  0.70421356     0.63200
H2380       H  0.41380541  0.11565962  0.68422681     0.07600
F2381       F  0.39161051  0.17073829  0.77822848    -0.19900
F2382       F  0.38212970  0.17921547  0.71545500    -0.16100
F2383       F  0.41102247  0.20939074  0.75490856    -0.19600
F2384       F  0.49136997  0.17120697  0.68985580    -0.23000
F2385       F  0.48600345  0.18664017  0.63044189    -0.24400
F2386       F  0.46225995  0.14668722  0.64400463    -0.18400
F2387       F  0.38909478  0.07343133  0.67042484    -0.20900
F2388       F  0.38169636  0.05578744  0.73351503    -0.22100
F2389       F  0.40841913  0.05387581  0.69055649    -0.19300
F2390       F  0.49844116  0.15968524  0.78113066    -0.19300
F2391       F  0.47001617  0.15541514  0.82683505    -0.23200
F2392       F  0.47822537  0.17951817  0.77100204    -0.24800
C2393       C  0.36683558  0.12204298  0.57817193    -0.11600
C2394       C  0.37761045  0.12419266  0.53959533     0.11000
C2395       C  0.38456827  0.14532463  0.51492601    -0.03400
C2396       C  0.38502189  0.16565465  0.53348928    -0.06100
C2397       C  0.37728032  0.16449878  0.57467023    -0.16900
C2398       C  0.36553212  0.14149971  0.59521170     0.02000
C2399       C  0.38195003  0.10425589  0.52716105     0.12000
C2400       C  0.39205525  0.14302152  0.97539876     0.62600
H2401       H  0.39371081  0.18312635  0.51759572     0.12000
C2402       C  0.35436765  0.13781179  0.63792508     0.54700
H2403       H  0.36030679  0.10533551  0.59601163     0.07800
C2404       C  0.40416556  0.10508919  0.53679489    -0.06000
C2405       C  0.40592567  0.08571790  0.03258675    -0.06800
C2406       C  0.38843825  0.06503188  0.01080393    -0.16300
C2407       C  0.36463502  0.06123606  0.00514419    -0.01900
C2408       C  0.35996179  0.07976014  0.01709539    -0.09500
C2409       C  0.42417065  0.12590705  0.56204890     0.64800
H2410       H  0.42392853  0.08819354  0.03711745     0.10200
C2411       C  0.34443860  0.03779704  0.98590319     0.63200
H2412       H  0.34229148  0.07778163  0.01091555     0.07600
F2413       F  0.36934098  0.13575474  0.66723465    -0.19900
F2414       F  0.33179330  0.11656578  0.63817011    -0.16100
F2415       F  0.35103910  0.15690012  0.64870815    -0.19600
F2416       F  0.37434389  0.12373799  0.95225457    -0.23000
F2417       F  0.41250020  0.14081092  0.97795586    -0.24400
F2418       F  0.39830599  0.16446330  0.95435584    -0.18400
F2419       F  0.32207415  0.03644300  0.98758761    -0.20900
F2420       F  0.34254537  0.01798639  0.00741498    -0.22100
F2421       F  0.34951870  0.03637648  0.94465321    -0.19300
F2422       F  0.44485975  0.12406029  0.56528548    -0.19300
F2423       F  0.41573780  0.12537247  0.60174435    -0.23200
F2424       F  0.43081437  0.14816389  0.54388955    -0.24800
loop_ 
_geom_bond_atom_site_label_1 
_geom_bond_atom_site_label_2 
_geom_bond_distance 
_geom_bond_site_symmetry_2 
_ccdc_geom_bond_type 
C1            N2   1.373       .  A
C1            N6   1.378       .  A
C1         C1130   1.505       .  S
N2            C3   1.364       .  A
C3            N4   1.343       .  A
C3         C1153   1.474       .  S
N4            C5   1.343       .  A
C5            N6   1.369       .  A
C5         C1185   1.486       .  S
C7            N8   1.372       .  A
C7           N12   1.372       .  A
C7         C1025   1.502       .  S
N8            C9   1.363       .  A
C9           N10   1.343       .  A
C9         C1066   1.474       .  S
N10          C11   1.344       .  A
C11          N12   1.361       .  A
C11        C1098   1.469       .  S
C13          N14   1.366       .  A
C13          N18   1.369       .  A
C13         C938   1.483       .  S
N14          C15   1.359       .  A
C15          N16   1.347       .  A
C15         C993   1.466       .  S
N16          C17   1.346       .  A
C17          N18   1.362       .  A
C17         C970   1.472       .  S
C19          N20   1.368       .  A
C19          N24   1.374       .  A
C19         C842   1.493       .  S
N20          C21   1.361       .  A
C21          N22   1.344       .  A
C21         C906   1.468       .  S
N22          C23   1.343       .  A
C23          N24   1.364       .  A
C23         C865   1.476       .  S
C25          N26   1.371       .  A
C25          N30   1.372       .  A
C25         C746   1.505       .  S
N26          C27   1.360       .  A
C27          N28   1.344       .  A
C27         C810   1.467       .  S
N28          C29   1.343       .  A
C29          N30   1.362       .  A
C29         C769   1.472       .  S
C31          N32   1.374       .  A
C31          N36   1.375       .  A
C31         C641   1.511       .  S
N32          C33   1.362       .  A
C33          N34   1.338       .  A
C33         C682   1.471       .  S
N34          C35   1.339       .  A
C35          N36   1.363       .  A
C35         C705   1.474       .  S
Zr37         O38   2.439       .  S
Zr37         O39   2.475       .  S
Zr37         O40   2.510       .  S
Zr37         O43   2.510       .  S
Zr37         O45   2.391       .  S
Zr37         O46   2.399       .  S
Zr37         O47   2.424       .  S
Zr37         O48   2.395       .  S
O38          H94   0.990       .  S
O38         H102   0.991       .  S
O39          C59   1.290       .  A
O40          C61   1.300       .  A
O41         Zr51   2.424       .  S
O41          C60   1.281       .  A
O42         Zr50   2.399       .  S
O42          C61   1.277       .  A
O43          C60   1.303       .  A
O44         Zr52   2.420       .  S
O44          C59   1.282       .  A
O45         Zr50   2.412       .  S
O45         Zr52   2.375       .  S
O46         Zr51   2.404       .  S
O46         Zr52   2.392       .  S
O46          H81   0.966       .  S
O47         Zr50   2.415       .  S
O47         Zr67   2.402       .  S
O47          H84   0.965       .  S
O48         Zr51   2.397       .  S
O48         Zr67   2.372       .  S
Zr49         O74   2.440       .  S
Zr49         O68   2.411       .  S
Zr49         O76   2.397       .  S
Zr49         O64   2.406       .  S
Zr49         O55   2.387       .  S
Zr49         O56   2.394       .  S
Zr49         O57   2.368       .  S
Zr49         O58   2.379       .  S
Zr50         O69   2.442       .  S
Zr50         O62   2.436       .  S
Zr50         O63   2.467       .  S
Zr50         O56   2.387       .  S
Zr50         O57   2.368       .  S
Zr51         O53   2.438       .  S
Zr51         O75   2.436       .  S
Zr51         O77   2.458       .  S
Zr51         O55   2.387       .  S
Zr51         O58   2.375       .  S
Zr52         O78   2.434       .  S
Zr52         O79   2.434       .  S
Zr52         O54   2.437       .  S
Zr52         O55   2.393       .  S
Zr52         O56   2.404       .  S
O53          H90   0.990       .  S
O54          H85   0.990       .  S
O54          H99   0.990       .  S
O56          H82   0.972       .  S
O57         Zr67   2.366       .  S
O58         Zr67   2.384       .  S
O58          H83   0.970       .  S
C59         C650   1.501       .  S
C60         C127   1.494       .  S
C61        C1338   1.487       .  S
O62          H98   0.990       .  S
O63          C65   1.290       .  A
O64          C65   1.279       .  A
C65        C1002   1.484       .  S
O66         Zr67   2.438       .  S
O66          H95   0.991       .  S
Zr67         O70   2.436       .  S
Zr67         O71   2.437       .  S
Zr67         O72   2.408       .  S
O68          C73   1.279       .  A
O69          H86   0.990       .  S
O69         H101   0.990       .  S
O70          H87   0.989       .  S
O71          H91   0.990       .  S
O71         H100   0.990       .  S
O72          C73   1.281       .  A
C73         C618   1.463       .  S
O74          H93   0.991       .  S
O74          H97   0.990       .  S
O75          H89   0.990       .  S
O75          H96   0.990       .  S
O76          C80   1.279       .  A
O77          C80   1.288       .  A
O78          H88   0.990       .  S
O79          H92   0.990       .  S
C80         C961   1.472       .  S
Zr103       O104   2.440       .  S
Zr103       O105   2.488       .  S
Zr103       O106   2.522       .  S
Zr103       O109   2.502       .  S
Zr103       O111   2.379       .  S
Zr103       O112   2.402       .  S
Zr103       O113   2.425       .  S
Zr103       O114   2.410       .  S
O104        H160   0.991       .  S
O104        H168   0.990       .  S
O105        C125   1.292       .  A
O106        C127   1.302       .  A
O107       Zr117   2.442       .  S
O107        C126   1.285       .  A
O108       Zr116   2.399       .  S
O108        C127   1.276       .  A
O109        C126   1.302       .  A
O110       Zr118   2.416       .  S
O110        C125   1.278       .  A
O111       Zr116   2.409       .  S
O111       Zr118   2.381       .  S
O112       Zr117   2.413       .  S
O112       Zr118   2.387       .  S
O112        H147   0.965       .  S
O113       Zr116   2.412       .  S
O113       Zr133   2.418   1_655  S
O113        H150   0.965       .  S
O114       Zr117   2.397       .  S
O114       Zr133   2.381   1_655  S
Zr115       O140   2.438       .  S
Zr115       O134   2.421       .  S
Zr115       O142   2.384       .  S
Zr115       O130   2.410       .  S
Zr115       O121   2.393   1_455  S
Zr115       O122   2.392   1_455  S
Zr115       O123   2.365       .  S
Zr115       O124   2.374       .  S
Zr116       O135   2.444       .  S
Zr116       O128   2.434       .  S
Zr116       O129   2.447   1_655  S
Zr116       O122   2.395       .  S
Zr116       O123   2.376   1_655  S
Zr117       O119   2.436   1_554  S
Zr117       O141   2.439       .  S
Zr117       O143   2.491       .  S
Zr117       O121   2.388       .  S
Zr117       O124   2.378   1_655  S
Zr118       O144   2.439       .  S
Zr118       O145   2.432       .  S
Zr118       O120   2.437       .  S
Zr118       O121   2.395       .  S
Zr118       O122   2.409       .  S
O119        H156   0.990       .  S
O120        H151   0.990       .  S
O120        H165   0.990       .  S
O122        H148   0.969       .  S
O123       Zr133   2.361       .  S
O124       Zr133   2.378       .  S
O124        H149   0.966       .  S
C125        C737   1.492       .  S
C126       C1273   1.497   1_554  S
O128        H164   0.990       .  S
O129        C131   1.285       .  A
O130        C131   1.280       .  A
C131       C1089   1.470       .  S
O132       Zr133   2.437   1_655  S
O132        H161   0.990   1_655  S
Zr133       O136   2.437       .  S
Zr133       O137   2.441       .  S
Zr133       O138   2.441       .  S
O134        C139   1.279       .  A
O135        H152   0.990       .  S
O135        H167   0.990       .  S
O136        H153   0.990       .  S
O137        H157   0.990       .  S
O137        H166   0.990       .  S
O138        C139   1.287       .  A
C139        C577   1.501       .  S
O140        H159   0.990       .  S
O140        H163   0.991       .  S
O141        H155   0.990   1_554  S
O141        H162   0.990   1_554  S
O142        C146   1.276       .  A
O143        C146   1.295   1_655  A
O144        H154   0.990       .  S
O145        H158   0.990       .  S
C146       C1057   1.482       .  S
Zr169       O170   2.439       .  S
Zr169       O171   2.473       .  S
Zr169       O172   2.518       .  S
Zr169       O175   2.497       .  S
Zr169       O177   2.393       .  S
Zr169       O178   2.400       .  S
Zr169       O179   2.419       .  S
Zr169       O180   2.421   1_565  S
O170        H226   0.990       .  S
O170        H234   0.990       .  S
O171        C191   1.290       .  A
O172        C193   1.303       .  A
O173       Zr183   2.417   1_565  S
O173        C192   1.282       .  A
O174       Zr182   2.456   1_565  S
O174        C193   1.288       .  A
O175        C192   1.300       .  A
O176       Zr184   2.418       .  S
O176        C191   1.282       .  A
O177       Zr182   2.414   1_565  S
O177       Zr184   2.389       .  S
O178       Zr183   2.416   1_565  S
O178       Zr184   2.366       .  S
O178        H213   0.964       .  S
O179       Zr182   2.420   1_565  S
O179       Zr199   2.370   1_565  S
O179        H216   0.968       .  S
O180       Zr183   2.423       .  S
O180       Zr199   2.400       .  S
Zr181       O206   2.440       .  S
Zr181       O200   2.420       .  S
Zr181       O208   2.385       .  S
Zr181       O196   2.373       .  S
Zr181       O187   2.389       .  S
Zr181       O188   2.395       .  S
Zr181       O189   2.377       .  S
Zr181       O190   2.367       .  S
Zr182       O201   2.437       .  S
Zr182       O194   2.434   1_545  S
Zr182       O195   2.495       .  S
Zr182       O188   2.395       .  S
Zr182       O189   2.389       .  S
Zr183       O185   2.435       .  S
Zr183       O207   2.440   1_545  S
Zr183       O209   2.502       .  S
Zr183       O187   2.383       .  S
Zr183       O190   2.373       .  S
Zr184       O210   2.438       .  S
Zr184       O211   2.436       .  S
Zr184       O186   2.437       .  S
Zr184       O187   2.403   1_565  S
Zr184       O188   2.395   1_565  S
O185        H222   0.990       .  S
O186        H217   0.990       .  S
O186        H231   0.990       .  S
O188        H214   0.953       .  S
O189       Zr199   2.382       .  S
O190       Zr199   2.360       .  S
O190        H215   0.960       .  S
C191       C1034   1.495       .  S
C192        C259   1.490       .  S
C193       C1470   1.506       .  S
O194        H230   0.990       .  S
O195        C197   1.296       .  A
O196        C197   1.273       .  A
C197       C1194   1.477       .  S
O198       Zr199   2.440       .  S
O198        H227   0.990       .  S
Zr199       O202   2.437       .  S
Zr199       O203   2.437       .  S
Zr199       O204   2.417       .  S
O200        C205   1.282       .  A
O201        H218   0.990       .  S
O201        H233   0.990       .  S
O202        H219   0.990       .  S
O203        H223   0.989       .  S
O203        H232   0.990       .  S
O204        C205   1.280       .  A
C205        C545   1.475       .  S
O206        H225   0.990       .  S
O206        H229   0.991       .  S
O207        H221   0.990   1_565  S
O207        H228   0.990       .  S
O208        C212   1.275       .  A
O209        C212   1.296       .  A
O210        H220   0.990       .  S
O211        H224   0.990   1_565  S
C212       C1162   1.488       .  S
Zr235       O236   2.438       .  S
Zr235       O237   2.471       .  S
Zr235       O238   2.495       .  S
Zr235       O241   2.491       .  S
Zr235       O243   2.388       .  S
Zr235       O244   2.400       .  S
Zr235       O245   2.422       .  S
Zr235       O246   2.395       .  S
O236        H292   0.990       .  S
O236        H300   0.990       .  S
O237        C257   1.289       .  A
O238        C259   1.298       .  A
O239       Zr249   2.452       .  S
O239        C258   1.288       .  A
O240       Zr248   2.415       .  S
O240        C259   1.279       .  A
O241        C258   1.298       .  A
O242       Zr250   2.414       .  S
O242        C257   1.280       .  A
O243       Zr248   2.411       .  S
O243       Zr250   2.381       .  S
O244       Zr249   2.401       .  S
O244       Zr250   2.392       .  S
O244        H279   0.962       .  S
O245       Zr248   2.414       .  S
O245       Zr265   2.414       .  S
O245        H282   0.965       .  S
O246       Zr249   2.392       .  S
O246       Zr265   2.369       .  S
Zr247       O272   2.440       .  S
Zr247       O266   2.419       .  S
Zr247       O274   2.399       .  S
Zr247       O262   2.404       .  S
Zr247       O253   2.390       .  S
Zr247       O254   2.392       .  S
Zr247       O255   2.370       .  S
Zr247       O256   2.377       .  S
Zr248       O267   2.441       .  S
Zr248       O260   2.437       .  S
Zr248       O261   2.457       .  S
Zr248       O254   2.388       .  S
Zr248       O255   2.376       .  S
Zr249       O251   2.437   1_554  S
Zr249       O273   2.436       .  S
Zr249       O275   2.469       .  S
Zr249       O253   2.391       .  S
Zr249       O256   2.380       .  S
Zr250       O276   2.437       .  S
Zr250       O277   2.435       .  S
Zr250       O252   2.438       .  S
Zr250       O253   2.394       .  S
Zr250       O254   2.404       .  S
O251        H288   0.990       .  S
O252        H283   0.991       .  S
O252        H297   0.990       .  S
O254        H280   0.958       .  S
O255       Zr265   2.367       .  S
O256       Zr265   2.382       .  S
O256        H281   0.961       .  S
C257        C929   1.497   1_565  S
C258       C1405   1.497   1_554  S
O260        H296   0.990       .  S
O261        C263   1.288       .  A
O262        C263   1.279       .  A
C263        C897   1.475       .  S
O264       Zr265   2.436       .  S
O264        H293   0.990       .  S
Zr265       O268   2.436       .  S
Zr265       O269   2.441       .  S
Zr265       O270   2.426       .  S
O266        C271   1.284       .  A
O267        H284   0.990       .  S
O267        H299   0.990       .  S
O268        H285   0.990       .  S
O269        H289   0.989       .  S
O269        H298   0.990       .  S
O270        C271   1.282       .  A
C271        C513   1.481       .  S
O272        H291   0.990       .  S
O272        H295   0.990       .  S
O273        H287   0.990   1_554  S
O273        H294   0.990       .  S
O274        C278   1.279       .  A
O275        C278   1.290       .  A
O276        H286   0.990       .  S
O277        H290   0.990       .  S
C278        C874   1.475       .  S
C301        N302   1.354       .  A
C301        N306   1.353       .  A
C301        C490   1.465       .  S
N302        C303   1.358       .  A
C303        N304   1.355       .  A
C303        C609   1.474       .  S
N304        C305   1.355       .  A
C305        N306   1.348       .  A
C305        C554   1.469       .  S
C307        N308   1.350       .  A
C307        N312   1.358       .  A
C307        C458   1.467       .  S
N308        C309   1.349       .  A
C309        N310   1.351       .  A
C309        C586   1.458       .  S
N310        C311   1.354       .  A
C311        N312   1.356       .  A
C311        C522   1.464       .  S
Zr313       O314   2.438       .  S
Zr313       O315   2.468       .  S
Zr313       O316   2.507       .  S
Zr313       O319   2.511       .  S
Zr313       O321   2.398       .  S
Zr313       O322   2.394       .  S
Zr313       O323   2.423       .  S
Zr313       O324   2.414       .  S
O314        H370   0.990       .  S
O314        H378   0.991       .  S
O315        C335   1.289       .  A
O316        C337   1.301       .  A
O317       Zr327   2.410       .  S
O317        C336   1.280       .  A
O318       Zr326   2.446       .  S
O318        C337   1.286       .  A
O319        C336   1.302       .  A
O320       Zr328   2.429       .  S
O320        C335   1.283       .  A
O321       Zr326   2.422       .  S
O321       Zr328   2.390       .  S
O322       Zr327   2.414       .  S
O322       Zr328   2.372       .  S
O322        H357   0.965       .  S
O323       Zr326   2.419       .  S
O323       Zr343   2.368       .  S
O323        H360   0.965       .  S
O324       Zr327   2.411       .  S
O324       Zr343   2.400       .  S
Zr325       O350   2.440       .  S
Zr325       O344   2.419       .  S
Zr325       O352   2.396       .  S
Zr325       O340   2.384       .  S
Zr325       O331   2.389       .  S
Zr325       O332   2.393       .  S
Zr325       O333   2.371       .  S
Zr325       O334   2.370       .  S
Zr326       O345   2.438       .  S
Zr326       O338   2.436       .  S
Zr326       O339   2.493       .  S
Zr326       O332   2.394       .  S
Zr326       O333   2.384       .  S
Zr327       O329   2.433       .  S
Zr327       O351   2.435   1_554  S
Zr327       O353   2.473       .  S
Zr327       O331   2.385       .  S
Zr327       O334   2.375       .  S
Zr328       O354   2.438       .  S
Zr328       O355   2.438       .  S
Zr328       O330   2.438       .  S
Zr328       O331   2.404       .  S
Zr328       O332   2.398       .  S
O329        H366   0.990   1_554  S
O330        H361   0.990       .  S
O330        H375   0.990       .  S
O332        H358   0.964       .  S
O333       Zr343   2.383       .  S
O334       Zr343   2.356       .  S
O334        H359   0.960       .  S
C335       C1121   1.498       .  S
C336       C1615   1.498   1_554  S
C337        C402   1.498       .  S
O338        H374   0.990       .  S
O339        C341   1.295       .  A
O340        C341   1.277       .  A
C341        C714   1.486       .  S
O342       Zr343   2.435       .  S
O342        H371   0.990       .  S
Zr343       O346   2.437       .  S
Zr343       O347   2.439       .  S
Zr343       O348   2.423       .  S
O344        C349   1.283       .  A
O345        H362   0.990       .  S
O345        H377   0.990       .  S
O346        H363   0.990       .  S
O347        H367   0.989       .  S
O347        H376   0.990       .  S
O348        C349   1.281       .  A
C349        C449   1.475       .  S
O350        H369   0.990       .  S
O350        H373   0.990       .  S
O351        H365   0.990       .  S
O351        H372   0.990       .  S
O352        C356   1.279       .  A
O353        C356   1.291       .  A
O354        H364   0.990       .  S
O355        H368   0.990       .  S
C356        C673   1.479       .  S
Zr379       O380   2.438       .  S
Zr379       O381   2.480       .  S
Zr379       O382   2.507       .  S
Zr379       O385   2.511       .  S
Zr379       O387   2.390       .  S
Zr379       O388   2.403       .  S
Zr379       O389   2.420       .  S
Zr379       O390   2.396       .  S
O380        H436   0.990       .  S
O380        H444   0.990       .  S
O381        C401   1.291       .  A
O382        C403   1.301       .  A
O383       Zr393   2.440       .  S
O383        C402   1.286       .  A
O384       Zr392   2.405       .  S
O384        C403   1.277       .  A
O385        C402   1.302       .  A
O386       Zr394   2.413       .  S
O386        C401   1.282       .  A
O387       Zr392   2.406       .  S
O387       Zr394   2.377       .  S
O388       Zr393   2.405       .  S
O388       Zr394   2.395       .  S
O388        H423   0.962       .  S
O389       Zr392   2.406       .  S
O389       Zr409   2.410       .  S
O389        H426   0.966       .  S
O390       Zr393   2.395       .  S
O390       Zr409   2.377       .  S
Zr391       O416   2.443       .  S
Zr391       O410   2.422       .  S
Zr391       O418   2.385       .  S
Zr391       O406   2.388       .  S
Zr391       O397   2.391       .  S
Zr391       O398   2.395       .  S
Zr391       O399   2.363       .  S
Zr391       O400   2.377       .  S
Zr392       O411   2.440       .  S
Zr392       O404   2.435       .  S
Zr392       O405   2.441       .  S
Zr392       O398   2.389       .  S
Zr392       O399   2.372       .  S
Zr393       O395   2.437       .  S
Zr393       O417   2.439       .  S
Zr393       O419   2.475       .  S
Zr393       O397   2.391       .  S
Zr393       O400   2.375       .  S
Zr394       O420   2.432       .  S
Zr394       O421   2.438       .  S
Zr394       O396   2.440       .  S
Zr394       O397   2.399       .  S
Zr394       O398   2.399       .  S
O395        H432   0.990       .  S
O396        H427   0.990       .  S
O396        H441   0.989       .  S
O398        H424   0.962       .  S
O399       Zr409   2.356       .  S
O400       Zr409   2.389       .  S
O400        H425   0.963       .  S
C401        C833   1.513       .  S
C403       C1548   1.491       .  S
O404        H440   0.990       .  S
O405        C407   1.285       .  A
O406        C407   1.276       .  A
C407        C801   1.459       .  S
O408       Zr409   2.439       .  S
O408        H437   0.990       .  S
Zr409       O412   2.439       .  S
Zr409       O413   2.440       .  S
Zr409       O414   2.430       .  S
O410        C415   1.283       .  A
O411        H428   0.990       .  S
O411        H443   0.990       .  S
O412        H429   0.990       .  S
O413        H433   0.990       .  S
O413        H442   0.990       .  S
O414        C415   1.283       .  A
C415        C481   1.491       .  S
O416        H435   0.990       .  S
O416        H439   0.990       .  S
O417        H431   0.990       .  S
O417        H438   0.990       .  S
O418        C422   1.275       .  A
O419        C422   1.290       .  A
O420        H430   0.989       .  S
O421        H434   0.990       .  S
C422        C778   1.476       .  S
C445        C446   1.399       .  A
C445        C450   1.401       .  A
C445        H455   1.084       .  S
C446        C451   1.472       .  S
C446        C447   1.411       .  A
C447        C448   1.404       .  A
C447        C452   1.519       .  S
C448        C449   1.406       .  A
C448        H453   1.083       .  S
C449        C450   1.419       .  A
C450        C454   1.520       .  S
C451        C456   1.413       .  A
C451        C460   1.401       .  A
C452        F468   1.382       .  S
C452        F469   1.381       .  S
C452        F470   1.384       .  S
C454        F465   1.382       .  S
C454        F466   1.385       .  S
C454        F467   1.383       .  S
C456        C457   1.400       .  A
C456        C461   1.519       .  S
C457        C458   1.402       .  A
C457        H462   1.083       .  S
C458        C459   1.418       .  A
C459        C460   1.401       .  A
C459        C463   1.523       .  S
C460        H464   1.081       .  S
C461        F474   1.385       .  S
C461        F475   1.382       .  S
C461        F476   1.381       .  S
C463        F471   1.384       .  S
C463        F472   1.383       .  S
C463        F473   1.383       .  S
C477        C478   1.395       .  A
C477        C482   1.403       .  A
C477        H487   1.084       .  S
C478        C483   1.472       .  S
C478        C479   1.410       .  A
C479        C480   1.404       .  A
C479        C484   1.521       .  S
C480        C481   1.412       .  A
C480        H485   1.082       .  S
C481        C482   1.426       .  A
C482        C486   1.519       .  S
C483        C488   1.416       .  A
C483        C492   1.401       .  A
C484        F500   1.383       .  S
C484        F501   1.383       .  S
C484        F502   1.385       .  S
C486        F497   1.383       .  S
C486        F498   1.385       .  S
C486        F499   1.383       .  S
C488        C489   1.394       .  A
C488        C493   1.520       .  S
C489        C490   1.399       .  A
C489        H494   1.083       .  S
C490        C491   1.416       .  A
C491        C492   1.406       .  A
C491        C495   1.517       .  S
C492        H496   1.083       .  S
C493        F506   1.386       .  S
C493        F507   1.382       .  S
C493        F508   1.378       .  S
C495        F503   1.384       .  S
C495        F504   1.384       .  S
C495        F505   1.382       .  S
C509        C510   1.397       .  A
C509        C514   1.403       .  A
C509        H519   1.084       .  S
C510        C515   1.472       .  S
C510        C511   1.411       .  A
C511        C512   1.401       .  A
C511        C516   1.519       .  S
C512        C513   1.407       .  A
C512        H517   1.083       .  S
C513        C514   1.424       .  A
C514        C518   1.519       .  S
C515        C520   1.415       .  A
C515        C524   1.403       .  A
C516        F532   1.382       .  S
C516        F533   1.383       .  S
C516        F534   1.384       .  S
C518        F529   1.383       .  S
C518        F530   1.385   1_554  S
C518        F531   1.383       .  S
C520        C521   1.396       .  A
C520        C525   1.522       .  S
C521        C522   1.400       .  A
C521        H526   1.084       .  S
C522        C523   1.414       .  A
C523        C524   1.406       .  A
C523        C527   1.518       .  S
C524        H528   1.083       .  S
C525        F538   1.385       .  S
C525        F539   1.382       .  S
C525        F540   1.382       .  S
C527        F535   1.385   1_554  S
C527        F536   1.383   1_554  S
C527        F537   1.382       .  S
C541        C542   1.398       .  A
C541        C546   1.400       .  A
C541        H551   1.084       .  S
C542        C547   1.469       .  S
C542        C543   1.410       .  A
C543        C544   1.404       .  A
C543        C548   1.519       .  S
C544        C545   1.407       .  A
C544        H549   1.083       .  S
C545        C546   1.421       .  A
C546        C550   1.521       .  S
C547        C552   1.412       .  A
C547        C556   1.399       .  A
C548        F564   1.382       .  S
C548        F565   1.381       .  S
C548        F566   1.383       .  S
C550        F561   1.382       .  S
C550        F562   1.385       .  S
C550        F563   1.383       .  S
C552        C553   1.401       .  A
C552        C557   1.520       .  S
C553        C554   1.404       .  A
C553        H558   1.083       .  S
C554        C555   1.419       .  A
C555        C556   1.400       .  A
C555        C559   1.522       .  S
C556        H560   1.081       .  S
C557        F570   1.384       .  S
C557        F571   1.382       .  S
C557        F572   1.381       .  S
C559        F567   1.383       .  S
C559        F568   1.383       .  S
C559        F569   1.383       .  S
C573        C574   1.394       .  A
C573        C578   1.406       .  A
C573        H583   1.083       .  S
C574        C579   1.474       .  S
C574        C575   1.409       .  A
C575        C576   1.405       .  A
C575        C580   1.522       .  S
C576        C577   1.414       .  A
C576        H581   1.082       .  S
C577        C578   1.433       .  A
C578        C582   1.523       .  S
C579        C584   1.415       .  A
C579        C588   1.404       .  A
C580        F596   1.382       .  S
C580        F597   1.382       .  S
C580        F598   1.384       .  S
C582        F593   1.383       .  S
C582        F594   1.386       .  S
C582        F595   1.381       .  S
C584        C585   1.400       .  A
C584        C589   1.519       .  S
C585        C586   1.398       .  A
C585        H590   1.083       .  S
C586        C587   1.414       .  A
C587        C588   1.403       .  A
C587        C591   1.523       .  S
C588        H592   1.084       .  S
C589        F602   1.385   1_554  S
C589        F603   1.382       .  S
C589        F604   1.381   1_554  S
C591        F599   1.384       .  S
C591        F600   1.385       .  S
C591        F601   1.383       .  S
C605        C606   1.394       .  A
C605        C610   1.397       .  A
C605        H615   1.084       .  S
C606        C611   1.462       .  S
C606        C607   1.408       .  A
C607        C608   1.402       .  A
C607        C612   1.521       .  S
C608        C609   1.409       .  A
C608        H613   1.082       .  S
C609        C610   1.423       .  A
C610        C614   1.521       .  S
C611        C616   1.413       .  A
C611        C620   1.399       .  A
C612        F628   1.383       .  S
C612        F629   1.382       .  S
C612        F630   1.385       .  S
C614        F625   1.383       .  S
C614        F626   1.386       .  S
C614        F627   1.382       .  S
C616        C617   1.394       .  A
C616        C621   1.522       .  S
C617        C618   1.401       .  A
C617        H622   1.084       .  S
C618        C619   1.417       .  A
C619        C620   1.402       .  A
C619        C623   1.519       .  S
C620        H624   1.083       .  S
C621        F634   1.385       .  S
C621        F635   1.382       .  S
C621        F636   1.381       .  S
C623        F631   1.384       .  S
C623        F632   1.382       .  S
C623        F633   1.383       .  S
C637        C638   1.401       .  A
C637        C642   1.415       .  A
C637        H647   1.083       .  S
C638        C643   1.500       .  S
C638        C639   1.417       .  A
C639        C640   1.413       .  A
C639        C644   1.519       .  S
C640        C641   1.411       .  A
C640        H645   1.082       .  S
C641        C642   1.429       .  A
C642        C646   1.518       .  S
C643        C648   1.415       .  A
C643        C652   1.407       .  A
C644        F660   1.382       .  S
C644        F661   1.382       .  S
C644        F662   1.385       .  S
C646        F657   1.383       .  S
C646        F658   1.385       .  S
C646        F659   1.384       .  S
C648        C649   1.409       .  A
C648        C653   1.520       .  S
C649        C650   1.408   1_455  A
C649        H654   1.083   1_455  S
C650        C651   1.424   1_655  A
C651        C652   1.419       .  A
C651        C655   1.519       .  S
C652        H656   1.083       .  S
C653        F666   1.384       .  S
C653        F667   1.383       .  S
C653        F668   1.382       .  S
C655        F663   1.384       .  S
C655        F664   1.383   1_455  S
C655        F665   1.383   1_455  S
C669        C670   1.414       .  A
C669       C1886   1.416       .  A
C669        H679   1.083       .  S
C670        C675   1.488       .  S
C670       C1883   1.415       .  A
C671        C672   1.399       .  A
C671       C1882   1.411   1_554  A
C671        C676   1.519       .  S
C672        C673   1.406       .  A
C672        H677   1.085       .  S
C673        C674   1.414   1_554  A
C674       C1881   1.411       .  A
C674       C1890   1.515       .  S
C675        C680   1.415       .  A
C675        C684   1.403       .  A
C676        F692   1.382       .  S
C676        F693   1.381       .  S
C676        F694   1.383       .  S
C678       C1886   1.515       .  S
C678        F689   1.384       .  S
C678        F690   1.383       .  S
C678       F1903   1.384       .  S
C680        C681   1.411       .  A
C680        C685   1.517       .  S
C681        C682   1.407       .  A
C681        H686   1.084       .  S
C682        C683   1.413       .  A
C683        C684   1.407       .  A
C683        C687   1.511       .  S
C684        H688   1.084       .  S
C685        F698   1.384       .  S
C685        F699   1.383       .  S
C685        F700   1.382       .  S
C687        F695   1.383       .  S
C687        F696   1.384       .  S
C687        F697   1.384       .  S
F691       C1890   1.383       .  S
C701        C702   1.408       .  A
C701        C706   1.411       .  A
C701        H711   1.083       .  S
C702        C707   1.485       .  S
C702        C703   1.416       .  A
C703        C704   1.402       .  A
C703        C708   1.522       .  S
C704        C705   1.407       .  A
C704        H709   1.086       .  S
C705        C706   1.412       .  A
C706        C710   1.517       .  S
C707        C712   1.410       .  A
C707        C716   1.406       .  A
C708        F724   1.383       .  S
C708        F725   1.381       .  S
C708        F726   1.383       .  S
C710        F721   1.384       .  S
C710        F722   1.383       .  S
C710        F723   1.383       .  S
C712        C713   1.404       .  A
C712        C717   1.518       .  S
C713        C714   1.408       .  A
C713        H718   1.083       .  S
C714        C715   1.416       .  A
C715        C716   1.413       .  A
C715        C719   1.513       .  S
C716        H720   1.083       .  S
C717        F730   1.384       .  S
C717        F731   1.383       .  S
C717        F732   1.383       .  S
C719        F727   1.385       .  S
C719        F728   1.383       .  S
C719        F729   1.382       .  S
C733        C734   1.407       .  A
C733        C738   1.416       .  A
C733        H743   1.083       .  S
C734        C739   1.502       .  S
C734        C735   1.419       .  A
C735        C736   1.413       .  A
C735        C740   1.520       .  S
C736        C737   1.405       .  A
C736        H741   1.083       .  S
C737        C738   1.416       .  A
C738        C742   1.515       .  S
C739        C744   1.415       .  A
C739        C748   1.404       .  A
C740        F756   1.382       .  S
C740        F757   1.382       .  S
C740        F758   1.384       .  S
C742        F753   1.384       .  S
C742        F754   1.383       .  S
C742        F755   1.383       .  S
C744        C745   1.412       .  A
C744        C749   1.518       .  S
C745        C746   1.411       .  A
C745        H750   1.082       .  S
C746        C747   1.426       .  A
C747        C748   1.415       .  A
C747        C751   1.521       .  S
C748        H752   1.083       .  S
C749        F762   1.384       .  S
C749        F763   1.382       .  S
C749        F764   1.382       .  S
C751        F759   1.383       .  S
C751        F760   1.384       .  S
C751        F761   1.384       .  S
C765        C766   1.402       .  A
C765        C770   1.410       .  A
C765        H775   1.083       .  S
C766        C771   1.489       .  S
C766        C767   1.420       .  A
C767        C768   1.409       .  A
C767        C772   1.520       .  S
C768        C769   1.400       .  A
C768        H773   1.083       .  S
C769        C770   1.417       .  A
C770        C774   1.519       .  S
C771        C776   1.413       .  A
C771        C780   1.405       .  A
C772        F788   1.382       .  S
C772        F789   1.382       .  S
C772        F790   1.384       .  S
C774        F785   1.383       .  S
C774        F786   1.384       .  S
C774        F787   1.383       .  S
C776        C777   1.408       .  A
C776        C781   1.516       .  S
C777        C778   1.405       .  A
C777        H782   1.083       .  S
C778        C779   1.414       .  A
C779        C780   1.409       .  A
C779        C783   1.517       .  S
C780        H784   1.083       .  S
C781        F794   1.385       .  S
C781        F795   1.382       .  S
C781        F796   1.382       .  S
C783        F791   1.385       .  S
C783        F792   1.382       .  S
C783        F793   1.383       .  S
C797        C798   1.405       .  A
C797       C2014   1.408       .  A
C797        H807   1.084       .  S
C798        C803   1.483       .  S
C798       C2011   1.415       .  A
C799        C800   1.398       .  A
C799       C2010   1.415       .  A
C799        C804   1.515       .  S
C800        C801   1.400       .  A
C800        H805   1.086       .  S
C801        C802   1.410       .  A
C802       C2009   1.405       .  A
C802        C806   1.518       .  S
C803        C808   1.419       .  A
C803        C812   1.401       .  A
C804        F821   1.380       .  S
C804        F822   1.381       .  S
C804       F2032   1.383       .  S
C806        F817   1.384       .  S
C806        F819   1.382       .  S
C806       F2030   1.385       .  S
C808        C809   1.409       .  A
C808       C2025   1.520   1_554  S
C809        C810   1.401       .  A
C809        H814   1.083       .  S
C810        C811   1.416       .  A
C811        C812   1.403       .  A
C811        C815   1.516       .  S
C812        H816   1.084       .  S
C813       C2020   1.521       .  S
C813        F826   1.384       .  S
C813        F827   1.383       .  S
C813        F828   1.383       .  S
C815        F823   1.384       .  S
C815        F824   1.384       .  S
C815        F825   1.383       .  S
F818       C2018   1.386       .  S
F820       C2016   1.383       .  S
C829        C830   1.404       .  A
C829        C834   1.419       .  A
C829        H839   1.083       .  S
C830        C835   1.495       .  S
C830        C831   1.413       .  A
C831        C832   1.406       .  A
C831        C836   1.523       .  S
C832        C833   1.415       .  A
C832        H837   1.082       .  S
C833        C834   1.428       .  A
C834        C838   1.519       .  S
C835        C840   1.418       .  A
C835        C844   1.402       .  A
C836        F852   1.382       .  S
C836        F853   1.382       .  S
C836        F854   1.385       .  S
C838        F849   1.383       .  S
C838        F850   1.385       .  S
C838        F851   1.382       .  S
C840        C841   1.415       .  A
C840        C845   1.520       .  S
C841        C842   1.407       .  A
C841        H846   1.083       .  S
C842        C843   1.418       .  A
C843        C844   1.410       .  A
C843        C847   1.515       .  S
C844        H848   1.083       .  S
C845        F858   1.384       .  S
C845        F859   1.383       .  S
C845        F860   1.382       .  S
C847        F855   1.384       .  S
C847        F856   1.380       .  S
C847        F857   1.384       .  S
C861        C862   1.400       .  A
C861        C866   1.407       .  A
C861       H2083   1.083       .  S
C862        C867   1.483       .  S
C862        C863   1.411       .  A
C863        C864   1.409       .  A
C863        C868   1.519       .  S
C864        C865   1.409       .  A
C864        H869   1.084       .  S
C865        C866   1.417       .  A
C866        C870   1.515       .  S
C867        C876   1.400       .  A
C867       C2084   1.419       .  A
C868        F884   1.382       .  S
C868        F885   1.383       .  S
C868        F886   1.383       .  S
C870        F881   1.383       .  S
C870        F882   1.386       .  S
C870        F883   1.381       .  S
H871       C2073   1.083   1_554  S
C872        C873   1.409       .  A
C872       C2079   1.421       .  A
C872       C2089   1.520       .  S
C873        C874   1.401   1_556  A
C873        H878   1.084       .  S
C874        C875   1.417       .  A
C875       C2088   1.408   1_554  A
C875        C879   1.517       .  S
C876       C2087   1.403       .  A
C876        H880   1.084       .  S
C877       C2084   1.520       .  S
C877        F892   1.382       .  S
C877       F2102   1.384       .  S
C877       F2103   1.382       .  S
C879        F887   1.382       .  S
C879        F888   1.384       .  S
C879       F2101   1.384       .  S
F889       C2091   1.383       .  S
F890       C2089   1.385       .  S
F891       C2089   1.382       .  S
C893        C894   1.404       .  A
C893        C898   1.407       .  A
C893        H903   1.083       .  S
C894        C899   1.479       .  S
C894        C895   1.411       .  A
C895        C896   1.404       .  A
C895        C900   1.517       .  S
C896        C897   1.405       .  A
C896        H901   1.084       .  S
C897        C898   1.415       .  A
C898        C902   1.515       .  S
C899        C904   1.418       .  A
C899        C908   1.396       .  A
C900        F916   1.382       .  S
C900        F917   1.381       .  S
C900        F918   1.384       .  S
C902        F913   1.382       .  S
C902        F914   1.386       .  S
C902        F915   1.382       .  S
C904        C905   1.409       .  A
C904        C909   1.520       .  S
C905        C906   1.403       .  A
C905        H910   1.084       .  S
C906        C907   1.419       .  A
C907        C908   1.400       .  A
C907        C911   1.516       .  S
C908        H912   1.085       .  S
C909        F922   1.385       .  S
C909        F923   1.383       .  S
C909        F924   1.381       .  S
C911        F919   1.384       .  S
C911        F920   1.383       .  S
C911        F921   1.383       .  S
C925        C926   1.408       .  A
C925        C930   1.418       .  A
C925        H935   1.083       .  S
C926        C931   1.500       .  S
C926        C927   1.417       .  A
C927        C928   1.408       .  A
C927        C932   1.521       .  S
C928        C929   1.407       .  A
C928        H933   1.083       .  S
C929        C930   1.422       .  A
C930        C934   1.520       .  S
C931        C936   1.421       .  A
C931        C940   1.406       .  A
C932        F948   1.381       .  S
C932        F949   1.382       .  S
C932        F950   1.385       .  S
C934        F945   1.384       .  S
C934        F946   1.384       .  S
C934        F947   1.383       .  S
C936        C937   1.413       .  A
C936        C941   1.517       .  S
C937        C938   1.401       .  A
C937        H942   1.083       .  S
C938        C939   1.414       .  A
C939        C940   1.411       .  A
C939        C943   1.516       .  S
C940        H944   1.083       .  S
C941        F954   1.385       .  S
C941        F955   1.382       .  S
C941        F956   1.382       .  S
C943        F951   1.384       .  S
C943        F952   1.382       .  S
C943        F953   1.384       .  S
C957        C958   1.401       .  A
C957        C962   1.404       .  A
C957        H967   1.084       .  S
C958        C963   1.485       .  S
C958        C959   1.421       .  A
C959        C960   1.408       .  A
C959        C964   1.521       .  S
C960        C961   1.401       .  A
C960        H965   1.083       .  S
C961        C962   1.417       .  A
C962        C966   1.517       .  S
C963        C968   1.414       .  A
C963        C972   1.403       .  A
C964        F980   1.381       .  S
C964        F981   1.381       .  S
C964        F982   1.385       .  S
C966        F977   1.384       .  S
C966        F978   1.382       .  S
C966        F979   1.384       .  S
C968        C969   1.409       .  A
C968        C973   1.518       .  S
C969        C970   1.406       .  A
C969        H974   1.084       .  S
C970        C971   1.414       .  A
C971        C972   1.406       .  A
C971        C975   1.517       .  S
C972        H976   1.084       .  S
C973        F986   1.385       .  S
C973        F987   1.382       .  S
C973        F988   1.382       .  S
C975        F983   1.385       .  S
C975        F984   1.382       .  S
C975        F985   1.383       .  S
C989        C990   1.401       .  A
C989        C994   1.403       .  A
C989        H999   1.084       .  S
C990        C995   1.482       .  S
C990        C991   1.418       .  A
C991        C992   1.407       .  A
C991        C996   1.520   1_554  S
C992        C993   1.400       .  A
C992        H997   1.084       .  S
C993        C994   1.414       .  A
C994        C998   1.515       .  S
C995       C1004   1.406       .  A
C995       C2212   1.410   1_554  A
C996       F1012   1.382   1_556  S
C996       F1014   1.384       .  S
C996       F2225   1.381       .  S
C998       F1009   1.383       .  S
C998       F1010   1.383       .  S
C998       F1011   1.384       .  S
C1000      C1001   1.410       .  A
C1000      C2207   1.415       .  A
C1000      C1005   1.521       .  S
C1001      C1002   1.409       .  A
C1001      H1006   1.084       .  S
C1002      C2215   1.415       .  A
C1003      C1004   1.409       .  A
C1003      C2214   1.414   1_554  A
C1003      C1007   1.518       .  S
C1004      H1008   1.079       .  S
C1005      F1018   1.385       .  S
C1005      F1019   1.382       .  S
C1005      F1020   1.382       .  S
C1007      F1015   1.382       .  S
C1007      F1017   1.385       .  S
C1007      F2228   1.383       .  S
F1013      C2208   1.381       .  S
F1016      C2219   1.384       .  S
C1021      C1022   1.401       .  A
C1021      C1026   1.411       .  A
C1021      H1031   1.083       .  S
C1022      C1027   1.494       .  S
C1022      C1023   1.414       .  A
C1023      C1024   1.413       .  A
C1023      C1028   1.519       .  S
C1024      C1025   1.411       .  A
C1024      H1029   1.083       .  S
C1025      C1026   1.426       .  A
C1026      C1030   1.520       .  S
C1027      C1032   1.416       .  A
C1027      C1036   1.406       .  A
C1028      F1044   1.382       .  S
C1028      F1045   1.382       .  S
C1028      F1046   1.384       .  S
C1030      F1041   1.386       .  S
C1030      F1042   1.382       .  S
C1030      F1043   1.383       .  S
C1032      C1033   1.408       .  A
C1032      C1037   1.521       .  S
C1033      C1034   1.406       .  A
C1033      H1038   1.083       .  S
C1034      C1035   1.421       .  A
C1035      C1036   1.416       .  A
C1035      C1039   1.516       .  S
C1036      H1040   1.083       .  S
C1037      F1050   1.384       .  S
C1037      F1051   1.382       .  S
C1037      F1052   1.382       .  S
C1039      F1047   1.385       .  S
C1039      F1048   1.383       .  S
C1039      F1049   1.383       .  S
C1053      C1054   1.404       .  A
C1053      C2270   1.410       .  A
C1053      H1063   1.083       .  S
C1054      C1059   1.496       .  S
C1054      C2267   1.417       .  A
C1055      C1056   1.410   1_556  A
C1055      C2266   1.414       .  A
C1055      C1060   1.520   1_556  S
C1056      C1057   1.408       .  A
C1056      H1061   1.083       .  S
C1057      C1058   1.415   1_554  A
C1058      C2265   1.409       .  A
C1058      C2274   1.516       .  S
C1059      C1064   1.423       .  A
C1059      C1068   1.402       .  A
C1060      F1076   1.383   1_554  S
C1060      F1077   1.382       .  S
C1060      F1078   1.384       .  S
C1062      C2270   1.516       .  S
C1062      F1073   1.383       .  S
C1062      F1074   1.385       .  S
C1062      F2287   1.382       .  S
C1064      C1065   1.411       .  A
C1064      C1069   1.520       .  S
C1065      C1066   1.402       .  A
C1065      H1070   1.084       .  S
C1066      C1067   1.418       .  A
C1067      C1068   1.407       .  A
C1067      C1071   1.517       .  S
C1068      H1072   1.084       .  S
C1069      F1082   1.385       .  S
C1069      F1083   1.382       .  S
C1069      F2296   1.382       .  S
C1071      F1079   1.383       .  S
C1071      F1080   1.383       .  S
C1071      F1081   1.383       .  S
F1075      C2274   1.382       .  S
F1084      C2281   1.381       .  S
C1085      C1086   1.403       .  A
C1085      C1090   1.407       .  A
C1085      H1095   1.082       .  S
C1086      C1091   1.490       .  S
C1086      C1087   1.422       .  A
C1087      C1088   1.406       .  A
C1087      C1092   1.520       .  S
C1088      C1089   1.398       .  A
C1088      H1093   1.084       .  S
C1089      C1090   1.414       .  A
C1090      C1094   1.516       .  S
C1091      C1096   1.415       .  A
C1091      C1100   1.406       .  A
C1092      F1108   1.381       .  S
C1092      F1109   1.383       .  S
C1092      F1110   1.385       .  S
C1094      F1105   1.384       .  S
C1094      F1106   1.385       .  S
C1094      F1107   1.378       .  S
C1096      C1097   1.407       .  A
C1096      C1101   1.519       .  S
C1097      C1098   1.404       .  A
C1097      H1102   1.083       .  S
C1098      C1099   1.413       .  A
C1099      C1100   1.409       .  A
C1099      C1103   1.517       .  S
C1100      H1104   1.083       .  S
C1101      F1114   1.384       .  S
C1101      F1115   1.382       .  S
C1101      F1116   1.383       .  S
C1103      F1111   1.384       .  S
C1103      F1112   1.383       .  S
C1103      F1113   1.383       .  S
C1117      C1118   1.409       .  A
C1117      C1122   1.419       .  A
C1117      H1127   1.083       .  S
C1118      C1123   1.509       .  S
C1118      C1119   1.420       .  A
C1119      C1120   1.412       .  A
C1119      C1124   1.518       .  S
C1120      C1121   1.405       .  A
C1120      H1125   1.083       .  S
C1121      C1122   1.419       .  A
C1122      C1126   1.518       .  S
C1123      C1128   1.419       .  A
C1123      C1132   1.405       .  A
C1124      F1140   1.382       .  S
C1124      F1141   1.382       .  S
C1124      F1142   1.385       .  S
C1126      F1137   1.383       .  S
C1126      F1138   1.384       .  S
C1126      F1139   1.384       .  S
C1128      C1129   1.419       .  A
C1128      C1133   1.518       .  S
C1129      C1130   1.408       .  A
C1129      H1134   1.083       .  S
C1130      C1131   1.421       .  A
C1131      C1132   1.417       .  A
C1131      C1135   1.516       .  S
C1132      H1136   1.083       .  S
C1133      F1146   1.384       .  S
C1133      F1147   1.383       .  S
C1133      F1148   1.383       .  S
C1135      F1143   1.385       .  S
C1135      F1144   1.383       .  S
C1135      F1145   1.381       .  S
C1149      C1150   1.403       .  A
C1149      C1154   1.409       .  A
C1149      H1159   1.083       .  S
C1150      C1155   1.489       .  S
C1150      C1151   1.414       .  A
C1151      C1152   1.409       .  A
C1151      C1156   1.517       .  S
C1152      C1153   1.406       .  A
C1152      H1157   1.083       .  S
C1153      C1154   1.415       .  A
C1154      C1158   1.516       .  S
C1155      C1160   1.413       .  A
C1155      C1164   1.408       .  A
C1156      F1172   1.382       .  S
C1156      F1173   1.385       .  S
C1156      F1174   1.379       .  S
C1158      F1169   1.385       .  S
C1158      F1170   1.382       .  S
C1158      F1171   1.383       .  S
C1160      C1161   1.405       .  A
C1160      C1165   1.519       .  S
C1161      C1162   1.410       .  A
C1161      H1166   1.085       .  S
C1162      C1163   1.415       .  A
C1163      C1164   1.413       .  A
C1163      C1167   1.515       .  S
C1164      H1168   1.080       .  S
C1165      F1178   1.382       .  S
C1165      F1179   1.383       .  S
C1165      F1180   1.380       .  S
C1167      F1175   1.386       .  S
C1167      F1176   1.383       .  S
C1167      F1177   1.382       .  S
C1181      C1182   1.398       .  A
C1181      C1186   1.406       .  A
C1181      H1191   1.084       .  S
C1182      C1187   1.495       .  S
C1182      C1183   1.419       .  A
C1183      C1184   1.418       .  A
C1183      C2400   1.520   1_554  S
C1184      C1185   1.407       .  A
C1184      H1189   1.083       .  S
C1185      C1186   1.421       .  A
C1186      C1190   1.514       .  S
C1187      C1192   1.420       .  A
C1187      C2408   1.403       .  A
C1188      C2395   1.516       .  S
C1188      F1204   1.383       .  S
C1188      F1205   1.381       .  S
C1188      F1206   1.385       .  S
C1190      F1201   1.383       .  S
C1190      F1202   1.384       .  S
C1190      F1203   1.384       .  S
C1192      C2405   1.412       .  A
C1192      C1197   1.519       .  S
C1193      C1194   1.402       .  A
C1193      C2404   1.411       .  A
C1193      H1198   1.083       .  S
C1194      C1195   1.417       .  A
C1195      C1196   1.409       .  A
C1195      C1199   1.516       .  S
C1196      C2399   1.401       .  A
C1196      H1200   1.083       .  S
C1197      F1210   1.383       .  S
C1197      F1211   1.380       .  S
C1197      F1212   1.380       .  S
C1199      F1207   1.385       .  S
C1199      F1208   1.383       .  S
C1199      F1209   1.381       .  S
C1213      N1214   1.372       .  A
C1213      N1218   1.375       .  A
C1213      C2342   1.495       .  S
N1214      C1215   1.362       .  A
C1215      N1216   1.339       .  A
C1215      C2365   1.470       .  S
N1216      C1217   1.341       .  A
C1217      N1218   1.366       .  A
C1217      C2397   1.477       .  S
C1219      N1220   1.368       .  A
C1219      N1224   1.374       .  A
C1219      C2237   1.507       .  S
N1220      C1221   1.359       .  A
C1221      N1222   1.342       .  A
C1221      C2278   1.467       .  S
N1222      C1223   1.343       .  A
C1223      N1224   1.364       .  A
C1223      C2310   1.472       .  S
C1225      N1226   1.371       .  A
C1225      N1230   1.368       .  A
C1225      C2150   1.492       .  S
N1226      C1227   1.363       .  A
C1227      N1228   1.346       .  A
C1227      C2205   1.474       .  S
N1228      C1229   1.347       .  A
C1229      N1230   1.360       .  A
C1229      C2182   1.471       .  S
C1231      N1232   1.375       .  A
C1231      N1236   1.375       .  A
C1231      C2054   1.518       .  S
N1232      C1233   1.364       .  A
C1233      N1234   1.340       .  A
C1233      C2118   1.472       .  S
N1234      C1235   1.342       .  A
C1235      N1236   1.365       .  A
C1235      C2077   1.475       .  S
C1237      N1238   1.369       .  A
C1237      N1242   1.376       .  A
C1237      C1958   1.498       .  S
N1238      C1239   1.361       .  A
C1239      N1240   1.344       .  A
C1239      C2022   1.466       .  S
N1240      C1241   1.342       .  A
C1241      N1242   1.367       .  A
C1241      C1981   1.481       .  S
C1243      N1244   1.365       .  A
C1243      N1248   1.380       .  A
C1243      C1853   1.512       .  S
N1244      C1245   1.355       .  A
C1245      N1246   1.341       .  A
C1245      C1894   1.460       .  S
N1246      C1247   1.342       .  A
C1247      N1248   1.369       .  A
C1247      C1917   1.481       .  S
Zr1249     O1250   2.440       .  S
Zr1249     O1251   2.473       .  S
Zr1249     O1252   2.528       .  S
Zr1249     O1255   2.514       .  S
Zr1249     O1257   2.388       .  S
Zr1249     O1258   2.402       .  S
Zr1249     O1259   2.419       .  S
Zr1249     O1260   2.400       .  S
O1250      H1306   0.990       .  S
O1250      H1314   0.991       .  S
O1251      C1271   1.291       .  A
O1252      C1273   1.303       .  A
O1253     Zr1263   2.440       .  S
O1253      C1272   1.286       .  A
O1254     Zr1262   2.402       .  S
O1254      C1273   1.278       .  A
O1255      C1272   1.304       .  A
O1256     Zr1264   2.425       .  S
O1256      C1271   1.283       .  A
O1257     Zr1262   2.411       .  S
O1257     Zr1264   2.381       .  S
O1258     Zr1263   2.407       .  S
O1258     Zr1264   2.379       .  S
O1258      H1293   0.973       .  S
O1259     Zr1262   2.417       .  S
O1259     Zr1279   2.401       .  S
O1259      H1296   0.965       .  S
O1260     Zr1263   2.404       .  S
O1260     Zr1279   2.360       .  S
Zr1261     O1286   2.442       .  S
Zr1261     O1280   2.426       .  S
Zr1261     O1288   2.369       .  S
Zr1261     O1276   2.394       .  S
Zr1261     O1267   2.392       .  S
Zr1261     O1268   2.386       .  S
Zr1261     O1269   2.362       .  S
Zr1261     O1270   2.376       .  S
Zr1262     O1281   2.441       .  S
Zr1262     O1274   2.436   1_556  S
Zr1262     O1275   2.460       .  S
Zr1262     O1268   2.382       .  S
Zr1262     O1269   2.373       .  S
Zr1263     O1265   2.435       .  S
Zr1263     O1287   2.436       .  S
Zr1263     O1289   2.491       .  S
Zr1263     O1267   2.379       .  S
Zr1263     O1270   2.378       .  S
Zr1264     O1290   2.438       .  S
Zr1264     O1291   2.433       .  S
Zr1264     O1266   2.434       .  S
Zr1264     O1267   2.392       .  S
Zr1264     O1268   2.406       .  S
O1265      H1302   0.990       .  S
O1266      H1297   0.990       .  S
O1266      H1311   0.990       .  S
O1268      H1294   0.971       .  S
O1269     Zr1279   2.372       .  S
O1270     Zr1279   2.380       .  S
O1270      H1295   0.967       .  S
C1271      C1862   1.498       .  S
C1272      C1339   1.500       .  S
O1274      H1310   0.990       .  S
O1275      C1277   1.288       .  A
O1276      C1277   1.277       .  A
C1277      C2214   1.475       .  S
O1278     Zr1279   2.436       .  S
O1278      H1307   0.991       .  S
Zr1279     O1282   2.434       .  S
Zr1279     O1283   2.440       .  S
Zr1279     O1284   2.395       .  S
O1280      C1285   1.281       .  A
O1281      H1298   0.990   1_556  S
O1281      H1313   0.991       .  S
O1282      H1299   0.990       .  S
O1283      H1303   0.990       .  S
O1283      H1312   0.990       .  S
O1284      C1285   1.279       .  A
C1285      C1830   1.481       .  S
O1286      H1305   0.991       .  S
O1286      H1309   0.990       .  S
O1287      H1301   0.990       .  S
O1287      H1308   0.990       .  S
O1288      C1292   1.273       .  A
O1289      C1292   1.295       .  A
O1290      H1300   0.990       .  S
O1291      H1304   0.990       .  S
C1292      C2173   1.474       .  S
Zr1315     O1316   2.441       .  S
Zr1315     O1317   2.478       .  S
Zr1315     O1318   2.523       .  S
Zr1315     O1321   2.497       .  S
Zr1315     O1323   2.385       .  S
Zr1315     O1324   2.401       .  S
Zr1315     O1325   2.417       .  S
Zr1315     O1326   2.407       .  S
O1316      H1372   0.990       .  S
O1316      H1380   0.990       .  S
O1317      C1337   1.291       .  A
O1318      C1339   1.302       .  A
O1319     Zr1329   2.421       .  S
O1319      C1338   1.281       .  A
O1320     Zr1328   2.414       .  S
O1320      C1339   1.279       .  A
O1321      C1338   1.300       .  A
O1322     Zr1330   2.413       .  S
O1322      C1337   1.279       .  A
O1323     Zr1328   2.411       .  S
O1323     Zr1330   2.382       .  S
O1324     Zr1329   2.409       .  S
O1324     Zr1330   2.385       .  S
O1324      H1359   0.965       .  S
O1325     Zr1328   2.409       .  S
O1325     Zr1345   2.399   1_655  S
O1325      H1362   0.964       .  S
O1326     Zr1329   2.409       .  S
O1326     Zr1345   2.371   1_655  S
Zr1327     O1352   2.441       .  S
Zr1327     O1346   2.419       .  S
Zr1327     O1354   2.401       .  S
Zr1327     O1342   2.411       .  S
Zr1327     O1333   2.388   1_455  S
Zr1327     O1334   2.395   1_455  S
Zr1327     O1335   2.376       .  S
Zr1327     O1336   2.379       .  S
Zr1328     O1347   2.441   1_655  S
Zr1328     O1340   2.435       .  S
Zr1328     O1341   2.457   1_655  S
Zr1328     O1334   2.394       .  S
Zr1328     O1335   2.373   1_655  S
Zr1329     O1331   2.437       .  S
Zr1329     O1353   2.434       .  S
Zr1329     O1355   2.479       .  S
Zr1329     O1333   2.387       .  S
Zr1329     O1336   2.372   1_655  S
Zr1330     O1356   2.437       .  S
Zr1330     O1357   2.438       .  S
Zr1330     O1332   2.437       .  S
Zr1330     O1333   2.395       .  S
Zr1330     O1334   2.408       .  S
O1331      H1368   0.990       .  S
O1332      H1363   0.991       .  S
O1332      H1377   0.990       .  S
O1334      H1360   0.962       .  S
O1335     Zr1345   2.367       .  S
O1336     Zr1345   2.377       .  S
O1336      H1361   0.962       .  S
C1337      C1949   1.486       .  S
O1340      H1376   0.990       .  S
O1341      C1343   1.288       .  A
O1342      C1343   1.281       .  A
C1343      C2301   1.474       .  S
O1344     Zr1345   2.435   1_655  S
O1344      H1373   0.991       .  S
Zr1345     O1348   2.438       .  S
Zr1345     O1349   2.438       .  S
Zr1345     O1350   2.413       .  S
O1346      C1351   1.279       .  A
O1347      H1364   0.990   1_455  S
O1347      H1379   0.990   1_455  S
O1348      H1365   0.990       .  S
O1349      H1369   0.990       .  S
O1349      H1378   0.990       .  S
O1350      C1351   1.284       .  A
C1351      C1789   1.491       .  S
O1352      H1371   0.990       .  S
O1352      H1375   0.990       .  S
O1353      H1367   0.990       .  S
O1353      H1374   0.990       .  S
O1354      C1358   1.278       .  A
O1355      C1358   1.292   1_655  A
O1356      H1366   0.990       .  S
O1357      H1370   0.989       .  S
C1358      C2269   1.485       .  S
Zr1381     O1382   2.442       .  S
Zr1381     O1383   2.469       .  S
Zr1381     O1384   2.501       .  S
Zr1381     O1387   2.502       .  S
Zr1381     O1389   2.395       .  S
Zr1381     O1390   2.394       .  S
Zr1381     O1391   2.421       .  S
Zr1381     O1392   2.417   1_565  S
O1382      H1438   0.991       .  S
O1382      H1446   0.990       .  S
O1383      C1403   1.289       .  A
O1384      C1405   1.298       .  A
O1385     Zr1395   2.396   1_565  S
O1385      C1404   1.276       .  A
O1386     Zr1394   2.449   1_564  S
O1386      C1405   1.287   1_554  A
O1387      C1404   1.301       .  A
O1388     Zr1396   2.425       .  S
O1388      C1403   1.282       .  A
O1389     Zr1394   2.417   1_565  S
O1389     Zr1396   2.387       .  S
O1390     Zr1395   2.411   1_565  S
O1390     Zr1396   2.370       .  S
O1390      H1425   0.965       .  S
O1391     Zr1394   2.420   1_565  S
O1391     Zr1411   2.376   1_565  S
O1391      H1428   0.971       .  S
O1392     Zr1395   2.420       .  S
O1392     Zr1411   2.400       .  S
Zr1393     O1418   2.437       .  S
Zr1393     O1412   2.420       .  S
Zr1393     O1420   2.403       .  S
Zr1393     O1408   2.398       .  S
Zr1393     O1399   2.397       .  S
Zr1393     O1400   2.394       .  S
Zr1393     O1401   2.379       .  S
Zr1393     O1402   2.366       .  S
Zr1394     O1413   2.435   1_556  S
Zr1394     O1406   2.436   1_546  S
Zr1394     O1407   2.489       .  S
Zr1394     O1400   2.391       .  S
Zr1394     O1401   2.395       .  S
Zr1395     O1397   2.436       .  S
Zr1395     O1419   2.433   1_545  S
Zr1395     O1421   2.472       .  S
Zr1395     O1399   2.384       .  S
Zr1395     O1402   2.375       .  S
Zr1396     O1422   2.437       .  S
Zr1396     O1423   2.436       .  S
Zr1396     O1398   2.440       .  S
Zr1396     O1399   2.410   1_565  S
Zr1396     O1400   2.386   1_565  S
O1397      H1434   0.990       .  S
O1398      H1429   0.990       .  S
O1398      H1443   0.990       .  S
O1400      H1426   0.958       .  S
O1401     Zr1411   2.386       .  S
O1402     Zr1411   2.352       .  S
O1402      H1427   0.959       .  S
C1403      C2246   1.497       .  S
C1404      C1471   1.486       .  S
O1406      H1442   0.990       .  S
O1407      C1409   1.295       .  A
O1408      C1409   1.278       .  A
C1409      C2406   1.482   1_556  S
O1410     Zr1411   2.437       .  S
O1410      H1439   0.990       .  S
Zr1411     O1414   2.435       .  S
Zr1411     O1415   2.442       .  S
Zr1411     O1416   2.430       .  S
O1412      C1417   1.283       .  A
O1413      H1430   0.991       .  S
O1413      H1445   0.990       .  S
O1414      H1431   0.990       .  S
O1415      H1435   0.989       .  S
O1415      H1444   0.989       .  S
O1416      C1417   1.282       .  A
C1417      C1757   1.483       .  S
O1418      H1437   0.991       .  S
O1418      H1441   0.989       .  S
O1419      H1433   0.990   1_565  S
O1419      H1440   0.990       .  S
O1420      C1424   1.279       .  A
O1421      C1424   1.290       .  A
O1422      H1432   0.990       .  S
O1423      H1436   0.990   1_565  S
C1424      C2374   1.481       .  S
Zr1447     O1448   2.439       .  S
Zr1447     O1449   2.464       .  S
Zr1447     O1450   2.508       .  S
Zr1447     O1453   2.515       .  S
Zr1447     O1455   2.392       .  S
Zr1447     O1456   2.398       .  S
Zr1447     O1457   2.423       .  S
Zr1447     O1458   2.398       .  S
O1448      H1504   0.990       .  S
O1448      H1512   0.990       .  S
O1449      C1469   1.287       .  A
O1450      C1471   1.302       .  A
O1451     Zr1461   2.441       .  S
O1451      C1470   1.285       .  A
O1452     Zr1460   2.394       .  S
O1452      C1471   1.276       .  A
O1453      C1470   1.303       .  A
O1454     Zr1462   2.420       .  S
O1454      C1469   1.283       .  A
O1455     Zr1460   2.412       .  S
O1455     Zr1462   2.372       .  S
O1456     Zr1461   2.404       .  S
O1456     Zr1462   2.391       .  S
O1456      H1491   0.962       .  S
O1457     Zr1460   2.421       .  S
O1457     Zr1477   2.405       .  S
O1457      H1494   0.966       .  S
O1458     Zr1461   2.401       .  S
O1458     Zr1477   2.380       .  S
Zr1459     O1484   2.439       .  S
Zr1459     O1478   2.412       .  S
Zr1459     O1486   2.373       .  S
Zr1459     O1474   2.397       .  S
Zr1459     O1465   2.392       .  S
Zr1459     O1466   2.385       .  S
Zr1459     O1467   2.363       .  S
Zr1459     O1468   2.375       .  S
Zr1460     O1479   2.441       .  S
Zr1460     O1472   2.435       .  S
Zr1460     O1473   2.466       .  S
Zr1460     O1466   2.378       .  S
Zr1460     O1467   2.370       .  S
Zr1461     O1463   2.435       .  S
Zr1461     O1485   2.438       .  S
Zr1461     O1487   2.471       .  S
Zr1461     O1465   2.387       .  S
Zr1461     O1468   2.381       .  S
Zr1462     O1488   2.434       .  S
Zr1462     O1489   2.435       .  S
Zr1462     O1464   2.440       .  S
Zr1462     O1465   2.397       .  S
Zr1462     O1466   2.403       .  S
O1463      H1500   0.990       .  S
O1464      H1495   0.990       .  S
O1464      H1509   0.990       .  S
O1466      H1492   0.957       .  S
O1467     Zr1477   2.370       .  S
O1468     Zr1477   2.384       .  S
O1468      H1493   0.961       .  S
C1469      C2141   1.509   1_565  S
O1472      H1508   0.990       .  S
O1473      C1475   1.289       .  A
O1474      C1475   1.277       .  A
C1475      C2109   1.478       .  S
O1476     Zr1477   2.442       .  S
O1476      H1505   0.990       .  S
Zr1477     O1480   2.437       .  S
Zr1477     O1481   2.442       .  S
Zr1477     O1482   2.433       .  S
O1478      C1483   1.282       .  A
O1479      H1496   0.990       .  S
O1479      H1511   0.990       .  S
O1480      H1497   0.990       .  S
O1481      H1501   0.989       .  S
O1481      H1510   0.990       .  S
O1482      C1483   1.284       .  A
C1483      C1725   1.481       .  S
O1484      H1503   0.990       .  S
O1484      H1507   0.990       .  S
O1485      H1499   0.990       .  S
O1485      H1506   0.990       .  S
O1486      C1490   1.274       .  A
O1487      C1490   1.290       .  A
O1488      H1498   0.990       .  S
O1489      H1502   0.990       .  S
C1490      C2086   1.467       .  S
C1513      N1514   1.356       .  A
C1513      N1518   1.358       .  A
C1513      C1702   1.483       .  S
N1514      C1515   1.357       .  A
C1515      N1516   1.353       .  A
C1515      C1821   1.459       .  S
N1516      C1517   1.352       .  A
C1517      N1518   1.355       .  A
C1517      C1766   1.476       .  S
C1519      N1520   1.355       .  A
C1519      N1524   1.358       .  A
C1519      C1670   1.469       .  S
N1520      C1521   1.353       .  A
C1521      N1522   1.350       .  A
C1521      C1798   1.458       .  S
N1522      C1523   1.352       .  A
C1523      N1524   1.352       .  A
C1523      C1734   1.465       .  S
Zr1525     O1526   2.440       .  S
Zr1525     O1527   2.476       .  S
Zr1525     O1528   2.508       .  S
Zr1525     O1531   2.515       .  S
Zr1525     O1533   2.398       .  S
Zr1525     O1534   2.393       .  S
Zr1525     O1535   2.423       .  S
Zr1525     O1536   2.414       .  S
O1526      H1582   0.990       .  S
O1526      H1590   0.991       .  S
O1527      C1547   1.291       .  A
O1528      C1549   1.301       .  A
O1529     Zr1539   2.393       .  S
O1529      C1548   1.276       .  A
O1530     Zr1538   2.436       .  S
O1530      C1549   1.285       .  A
O1531      C1548   1.303       .  A
O1532     Zr1540   2.423       .  S
O1532      C1547   1.281       .  A
O1533     Zr1538   2.418       .  S
O1533     Zr1540   2.384       .  S
O1534     Zr1539   2.408       .  S
O1534     Zr1540   2.371       .  S
O1534      H1569   0.965       .  S
O1535     Zr1538   2.421       .  S
O1535     Zr1555   2.361       .  S
O1535      H1572   0.964       .  S
O1536     Zr1539   2.412       .  S
O1536     Zr1555   2.393       .  S
Zr1537     O1562   2.442       .  S
Zr1537     O1556   2.431       .  S
Zr1537     O1564   2.409       .  S
Zr1537     O1552   2.391       .  S
Zr1537     O1543   2.397       .  S
Zr1537     O1544   2.404       .  S
Zr1537     O1545   2.371       .  S
Zr1537     O1546   2.377       .  S
Zr1538     O1557   2.438       .  S
Zr1538     O1550   2.435       .  S
Zr1538     O1551   2.500       .  S
Zr1538     O1544   2.387       .  S
Zr1538     O1545   2.389       .  S
Zr1539     O1541   2.439       .  S
Zr1539     O1563   2.436       .  S
Zr1539     O1565   2.452       .  S
Zr1539     O1543   2.385       .  S
Zr1539     O1546   2.387       .  S
Zr1540     O1566   2.436       .  S
Zr1540     O1567   2.436       .  S
Zr1540     O1542   2.437       .  S
Zr1540     O1543   2.402       .  S
Zr1540     O1544   2.396       .  S
O1541      H1578   0.991       .  S
O1542      H1573   0.990       .  S
O1542      H1587   0.990       .  S
O1544      H1570   0.963       .  S
O1545     Zr1555   2.391       .  S
O1546     Zr1555   2.366       .  S
O1546      H1571   0.966       .  S
C1547      C2333   1.497       .  S
C1549      C1614   1.493       .  S
O1550      H1586   0.990       .  S
O1551      C1553   1.295       .  A
O1552      C1553   1.276       .  A
C1553      C1926   1.495       .  S
O1554     Zr1555   2.442       .  S
O1554      H1583   0.990       .  S
Zr1555     O1558   2.437       .  S
Zr1555     O1559   2.440       .  S
Zr1555     O1560   2.402       .  S
O1556      C1561   1.283       .  A
O1557      H1574   0.991       .  S
O1557      H1589   0.990       .  S
O1558      H1575   0.990       .  S
O1559      H1579   0.989       .  S
O1559      H1588   0.990       .  S
O1560      C1561   1.277       .  A
C1561      C1661   1.470       .  S
O1562      H1581   0.990       .  S
O1562      H1585   0.991       .  S
O1563      H1577   0.990       .  S
O1563      H1584   0.990       .  S
O1564      C1568   1.273       .  A
O1565      C1568   1.282       .  A
O1566      H1576   0.990       .  S
O1567      H1580   0.991       .  S
C1568      C1885   1.473       .  S
Zr1591     O1592   2.437       .  S
Zr1591     O1593   2.480       .  S
Zr1591     O1594   2.507       .  S
Zr1591     O1597   2.502       .  S
Zr1591     O1599   2.385       .  S
Zr1591     O1600   2.397       .  S
Zr1591     O1601   2.420       .  S
Zr1591     O1602   2.395       .  S
O1592      H1648   0.990       .  S
O1592      H1656   0.990       .  S
O1593      C1613   1.292       .  A
O1594      C1615   1.301       .  A
O1595     Zr1605   2.443       .  S
O1595      C1614   1.286       .  A
O1596     Zr1604   2.421   1_554  S
O1596      C1615   1.281   1_554  A
O1597      C1614   1.301       .  A
O1598     Zr1606   2.426       .  S
O1598      C1613   1.283       .  A
O1599     Zr1604   2.411       .  S
O1599     Zr1606   2.381       .  S
O1600     Zr1605   2.400       .  S
O1600     Zr1606   2.389       .  S
O1600      H1635   0.968       .  S
O1601     Zr1604   2.416       .  S
O1601     Zr1621   2.414       .  S
O1601      H1638   0.966       .  S
O1602     Zr1605   2.400       .  S
O1602     Zr1621   2.373       .  S
Zr1603     O1628   2.442       .  S
Zr1603     O1622   2.427       .  S
Zr1603     O1630   2.375       .  S
Zr1603     O1618   2.410       .  S
Zr1603     O1609   2.395       .  S
Zr1603     O1610   2.395       .  S
Zr1603     O1611   2.365       .  S
Zr1603     O1612   2.380       .  S
Zr1604     O1623   2.439   1_556  S
Zr1604     O1616   2.435   1_556  S
Zr1604     O1617   2.466       .  S
Zr1604     O1610   2.392       .  S
Zr1604     O1611   2.377       .  S
Zr1605     O1607   2.438       .  S
Zr1605     O1629   2.440       .  S
Zr1605     O1631   2.491       .  S
Zr1605     O1609   2.391       .  S
Zr1605     O1612   2.367       .  S
Zr1606     O1632   2.435       .  S
Zr1606     O1633   2.439       .  S
Zr1606     O1608   2.441       .  S
Zr1606     O1609   2.399       .  S
Zr1606     O1610   2.412       .  S
O1607      H1644   0.990       .  S
O1608      H1639   0.991       .  S
O1608      H1653   0.990       .  S
O1610      H1636   0.961       .  S
O1611     Zr1621   2.366       .  S
O1612     Zr1621   2.384       .  S
O1612      H1637   0.960       .  S
C1613      C2045   1.494       .  S
O1616      H1652   0.990       .  S
O1617      C1619   1.290       .  A
O1618      C1619   1.281       .  A
C1619      C2013   1.480   1_556  S
O1620     Zr1621   2.440       .  S
O1620      H1649   0.991       .  S
Zr1621     O1624   2.437       .  S
Zr1621     O1625   2.442       .  S
Zr1621     O1626   2.432       .  S
O1622      C1627   1.286       .  A
O1623      H1640   0.990       .  S
O1623      H1655   0.990   1_554  S
O1624      H1641   0.990       .  S
O1625      H1645   0.990       .  S
O1625      H1654   0.991       .  S
O1626      C1627   1.282       .  A
C1627      C1693   1.491       .  S
O1628      H1647   0.991       .  S
O1628      H1651   0.990       .  S
O1629      H1643   0.990       .  S
O1629      H1650   0.990       .  S
O1630      C1634   1.274       .  A
O1631      C1634   1.294       .  A
O1632      H1642   0.990       .  S
O1633      H1646   0.990       .  S
C1634      C1990   1.481       .  S
C1657      C1658   1.397       .  A
C1657      C1662   1.397       .  A
C1657      H1667   1.083       .  S
C1658      C1663   1.468       .  S
C1658      C1659   1.413       .  A
C1659      C1660   1.403       .  A
C1659      C1664   1.519       .  S
C1660      C1661   1.406       .  A
C1660      H1665   1.083       .  S
C1661      C1662   1.420       .  A
C1662      C1666   1.520       .  S
C1663      C1668   1.413       .  A
C1663      C1672   1.400       .  A
C1664      F1680   1.382       .  S
C1664      F1681   1.382       .  S
C1664      F1682   1.385       .  S
C1666      F1677   1.382       .  S
C1666      F1678   1.386       .  S
C1666      F1679   1.383       .  S
C1668      C1669   1.398       .  A
C1668      C1673   1.522       .  S
C1669      C1670   1.404       .  A
C1669      H1674   1.083       .  S
C1670      C1671   1.417       .  A
C1671      C1672   1.399       .  A
C1671      C1675   1.521       .  S
C1672      H1676   1.080       .  S
C1673      F1686   1.385       .  S
C1673      F1687   1.382       .  S
C1673      F1688   1.382       .  S
C1675      F1683   1.386       .  S
C1675      F1684   1.383       .  S
C1675      F1685   1.382       .  S
C1689      C1690   1.399       .  A
C1689      C1694   1.408       .  A
C1689      H1699   1.083       .  S
C1690      C1695   1.478       .  S
C1690      C1691   1.411       .  A
C1691      C1692   1.399       .  A
C1691      C1696   1.520       .  S
C1692      C1693   1.408       .  A
C1692      H1697   1.082       .  S
C1693      C1694   1.428       .  A
C1694      C1698   1.522       .  S
C1695      C1700   1.415       .  A
C1695      C1704   1.400       .  A
C1696      F1712   1.382       .  S
C1696      F1713   1.382       .  S
C1696      F1714   1.385       .  S
C1698      F1709   1.382       .  S
C1698      F1710   1.386       .  S
C1698      F1711   1.384       .  S
C1700      C1701   1.400       .  A
C1700      C1705   1.523       .  S
C1701      C1702   1.404       .  A
C1701      H1706   1.083       .  S
C1702      C1703   1.423       .  A
C1703      C1704   1.409       .  A
C1703      C1707   1.519       .  S
C1704      H1708   1.083       .  S
C1705      F1718   1.385       .  S
C1705      F1719   1.382       .  S
C1705      F1720   1.381       .  S
C1707      F1715   1.385       .  S
C1707      F1716   1.383       .  S
C1707      F1717   1.383       .  S
C1721      C1722   1.396       .  A
C1721      C1726   1.402       .  A
C1721      H1731   1.083       .  S
C1722      C1727   1.470       .  S
C1722      C1723   1.412       .  A
C1723      C1724   1.403       .  A
C1723      C1728   1.520       .  S
C1724      C1725   1.408       .  A
C1724      H1729   1.083       .  S
C1725      C1726   1.421       .  A
C1726      C1730   1.518       .  S
C1727      C1732   1.413       .  A
C1727      C1736   1.402       .  A
C1728      F1744   1.382       .  S
C1728      F1745   1.383       .  S
C1728      F1746   1.383       .  S
C1730      F1741   1.382       .  S
C1730      F1742   1.385       .  S
C1730      F1743   1.383       .  S
C1732      C1733   1.396       .  A
C1732      C1737   1.521       .  S
C1733      C1734   1.402       .  A
C1733      H1738   1.083       .  S
C1734      C1735   1.415       .  A
C1735      C1736   1.404       .  A
C1735      C1739   1.518       .  S
C1736      H1740   1.083       .  S
C1737      F1750   1.385       .  S
C1737      F1751   1.382       .  S
C1737      F1752   1.382       .  S
C1739      F1747   1.385       .  S
C1739      F1748   1.383       .  S
C1739      F1749   1.382       .  S
C1753      C1754   1.396       .  A
C1753      C1758   1.401       .  A
C1753      H1763   1.083       .  S
C1754      C1759   1.474       .  S
C1754      C1755   1.412       .  A
C1755      C1756   1.406       .  A
C1755      C1760   1.521       .  S
C1756      C1757   1.409       .  A
C1756      H1761   1.083       .  S
C1757      C1758   1.424       .  A
C1758      C1762   1.520       .  S
C1759      C1764   1.412       .  A
C1759      C1768   1.400       .  A
C1760      F1776   1.382       .  S
C1760      F1777   1.381       .  S
C1760      F1778   1.384       .  S
C1762      F1773   1.382       .  S
C1762      F1774   1.385       .  S
C1762      F1775   1.383       .  S
C1764      C1765   1.405       .  A
C1764      C1769   1.522       .  S
C1765      C1766   1.407       .  A
C1765      H1770   1.081       .  S
C1766      C1767   1.417       .  A
C1767      C1768   1.401       .  A
C1767      C1771   1.520       .  S
C1768      H1772   1.080       .  S
C1769      F1782   1.384       .  S
C1769      F1783   1.382       .  S
C1769      F1784   1.382       .  S
C1771      F1779   1.382       .  S
C1771      F1780   1.384       .  S
C1771      F1781   1.383       .  S
C1785      C1786   1.398       .  A
C1785      C1790   1.407       .  A
C1785      H1795   1.083       .  S
C1786      C1791   1.466       .  S
C1786      C1787   1.407       .  A
C1787      C1788   1.394       .  A
C1787      C1792   1.524       .  S
C1788      C1789   1.411       .  A
C1788      H1793   1.081       .  S
C1789      C1790   1.429       .  A
C1790      C1794   1.522       .  S
C1791      C1796   1.410       .  A
C1791      C1800   1.401       .  A
C1792      F1808   1.382       .  S
C1792      F1809   1.381       .  S
C1792      F1810   1.385       .  S
C1794      F1805   1.383       .  S
C1794      F1806   1.386       .  S
C1794      F1807   1.382       .  S
C1796      C1797   1.400       .  A
C1796      C1801   1.519       .  S
C1797      C1798   1.401       .  A
C1797      H1802   1.084       .  S
C1798      C1799   1.415       .  A
C1799      C1800   1.400       .  A
C1799      C1803   1.521       .  S
C1800      H1804   1.084       .  S
C1801      F1814   1.384       .  S
C1801      F1815   1.382       .  S
C1801      F1816   1.382       .  S
C1803      F1811   1.385       .  S
C1803      F1812   1.383       .  S
C1803      F1813   1.382       .  S
C1817      C1818   1.398       .  A
C1817      C1822   1.395       .  A
C1817      H1827   1.084       .  S
C1818      C1823   1.465       .  S
C1818      C1819   1.412       .  A
C1819      C1820   1.404       .  A
C1819      C1824   1.519       .  S
C1820      C1821   1.402       .  A
C1820      H1825   1.083       .  S
C1821      C1822   1.413       .  A
C1822      C1826   1.518       .  S
C1823      C1828   1.410       .  A
C1823      C1832   1.399       .  A
C1824      F1840   1.382       .  S
C1824      F1841   1.381       .  S
C1824      F1842   1.385       .  S
C1826      F1837   1.383       .  S
C1826      F1838   1.385       .  S
C1826      F1839   1.380       .  S
C1828      C1829   1.395       .  A
C1828      C1833   1.525       .  S
C1829      C1830   1.410       .  A
C1829      H1834   1.082       .  S
C1830      C1831   1.422       .  A
C1831      C1832   1.404       .  A
C1831      C1835   1.519       .  S
C1832      H1836   1.083       .  S
C1833      F1846   1.385       .  S
C1833      F1847   1.382       .  S
C1833      F1848   1.381       .  S
C1835      F1843   1.385       .  S
C1835      F1844   1.383       .  S
C1835      F1845   1.383       .  S
C1849      C1850   1.400       .  A
C1849      C1854   1.416       .  A
C1849      H1859   1.083       .  S
C1850      C1855   1.502       .  S
C1850      C1851   1.417       .  A
C1851      C1852   1.412       .  A
C1851      C1856   1.516       .  S
C1852      C1853   1.407       .  A
C1852      H1857   1.082       .  S
C1853      C1854   1.435       .  A
C1854      C1858   1.522       .  S
C1855      C1860   1.419       .  A
C1855      C1864   1.405       .  A
C1856      F1872   1.382       .  S
C1856      F1873   1.381       .  S
C1856      F1874   1.385       .  S
C1858      F1869   1.382       .  S
C1858      F1870   1.386       .  S
C1858      F1871   1.384       .  S
C1860      C1861   1.412       .  A
C1860      C1865   1.520       .  S
C1861      C1862   1.407   1_455  A
C1861      H1866   1.083   1_455  S
C1862      C1863   1.423   1_655  A
C1863      C1864   1.417       .  A
C1863      C1867   1.519       .  S
C1864      H1868   1.083       .  S
C1865      F1878   1.385       .  S
C1865      F1879   1.382       .  S
C1865      F1880   1.381       .  S
C1867      F1875   1.384       .  S
C1867      F1876   1.383   1_455  S
C1867      F1877   1.383   1_455  S
C1881      C1882   1.409       .  A
C1881      H1891   1.084       .  S
C1882      C1887   1.477       .  S
C1883      C1884   1.398       .  A
C1883      C1888   1.514       .  S
C1884      C1885   1.397       .  A
C1884      H1889   1.082       .  S
C1885      C1886   1.409       .  A
C1887      C1892   1.412       .  A
C1887      C1896   1.404       .  A
C1888      F1904   1.384       .  S
C1888      F1905   1.380       .  S
C1888      F1906   1.379       .  S
C1890      F1901   1.383       .  S
C1890      F1902   1.385       .  S
C1892      C1893   1.405       .  A
C1892      C1897   1.517       .  S
C1893      C1894   1.403       .  A
C1893      H1898   1.084       .  S
C1894      C1895   1.411       .  A
C1895      C1896   1.404       .  A
C1895      C1899   1.517       .  S
C1896      H1900   1.084   1_556  S
C1897      F1910   1.384       .  S
C1897      F1911   1.382       .  S
C1897      F1912   1.382       .  S
C1899      F1907   1.384       .  S
C1899      F1908   1.383       .  S
C1899      F1909   1.384   1_556  S
C1913      C1914   1.408       .  A
C1913      C1918   1.413       .  A
C1913      H1923   1.083       .  S
C1914      C1919   1.499       .  S
C1914      C1915   1.416       .  A
C1915      C1916   1.413       .  A
C1915      C1920   1.518       .  S
C1916      C1917   1.408       .  A
C1916      H1921   1.084       .  S
C1917      C1918   1.414       .  A
C1918      C1922   1.516       .  S
C1919      C1924   1.416       .  A
C1919      C1928   1.409       .  A
C1920      F1936   1.382       .  S
C1920      F1937   1.381       .  S
C1920      F1938   1.384       .  S
C1922      F1933   1.384       .  S
C1922      F1934   1.383       .  S
C1922      F1935   1.383       .  S
C1924      C1925   1.410       .  A
C1924      C1929   1.522       .  S
C1925      C1926   1.411       .  A
C1925      H1930   1.083       .  S
C1926      C1927   1.416       .  A
C1927      C1928   1.415       .  A
C1927      C1931   1.515       .  S
C1928      H1932   1.083       .  S
C1929      F1942   1.385       .  S
C1929      F1943   1.381       .  S
C1929      F1944   1.381       .  S
C1931      F1939   1.385       .  S
C1931      F1940   1.383       .  S
C1931      F1941   1.383       .  S
C1945      C1946   1.403       .  A
C1945      C1950   1.411       .  A
C1945      H1955   1.083       .  S
C1946      C1951   1.498       .  S
C1946      C1947   1.419       .  A
C1947      C1948   1.414       .  A
C1947      C1952   1.518       .  S
C1948      C1949   1.405       .  A
C1948      H1953   1.083       .  S
C1949      C1950   1.418       .  A
C1950      C1954   1.517       .  S
C1951      C1956   1.419       .  A
C1951      C1960   1.402       .  A
C1952      F1968   1.382       .  S
C1952      F1969   1.383       .  S
C1952      F1970   1.385       .  S
C1954      F1965   1.385       .  S
C1954      F1966   1.383       .  S
C1954      F1967   1.383       .  S
C1956      C1957   1.413       .  A
C1956      C1961   1.520       .  S
C1957      C1958   1.405       .  A
C1957      H1962   1.083       .  S
C1958      C1959   1.424       .  A
C1959      C1960   1.414       .  A
C1959      C1963   1.519       .  S
C1960      H1964   1.083       .  S
C1961      F1974   1.384       .  S
C1961      F1975   1.382       .  S
C1961      F1976   1.382       .  S
C1963      F1971   1.382       .  S
C1963      F1972   1.383       .  S
C1963      F1973   1.386       .  S
C1977      C1978   1.401       .  A
C1977      C1982   1.407       .  A
C1977      H1987   1.084       .  S
C1978      C1983   1.498       .  S
C1978      C1979   1.423       .  A
C1979      C1980   1.415       .  A
C1979      C1984   1.520       .  S
C1980      C1981   1.402       .  A
C1980      H1985   1.083       .  S
C1981      C1982   1.422       .  A
C1982      C1986   1.518       .  S
C1983      C1988   1.416       .  A
C1983      C1992   1.407       .  A
C1984      F2000   1.382       .  S
C1984      F2001   1.382       .  S
C1984      F2002   1.385       .  S
C1986      F1997   1.383       .  S
C1986      F1998   1.384       .  S
C1986      F1999   1.384       .  S
C1988      C1989   1.409       .  A
C1988      C1993   1.515       .  S
C1989      C1990   1.404       .  A
C1989      H1994   1.083       .  S
C1990      C1991   1.414       .  A
C1991      C1992   1.413       .  A
C1991      C1995   1.515       .  S
C1992      H1996   1.083       .  S
C1993      F2006   1.385       .  S
C1993      F2007   1.382       .  S
C1993      F2008   1.381       .  S
C1995      F2003   1.384       .  S
C1995      F2004   1.383       .  S
C1995      F2005   1.381       .  S
C2009      C2010   1.406       .  A
C2009      H2019   1.084       .  S
C2010      C2015   1.476       .  S
C2011      C2012   1.406   1_554  A
C2011      C2016   1.518   1_554  S
C2012      C2013   1.406   1_556  A
C2012      H2017   1.085       .  S
C2013      C2014   1.414       .  A
C2014      C2018   1.516       .  S
C2015      C2020   1.416       .  A
C2015      C2024   1.399       .  A
C2016      F2033   1.382   1_556  S
C2016      F2034   1.381       .  S
C2018      F2029   1.383       .  S
C2018      F2031   1.382       .  S
C2020      C2021   1.408       .  A
C2021      C2022   1.404       .  A
C2021      H2026   1.084       .  S
C2022      C2023   1.414       .  A
C2023      C2024   1.401       .  A
C2023      C2027   1.512       .  S
C2024      H2028   1.085       .  S
C2025      F2038   1.384       .  S
C2025      F2039   1.383       .  S
C2025      F2040   1.381       .  S
C2027      F2035   1.383       .  S
C2027      F2036   1.383       .  S
C2027      F2037   1.384       .  S
C2041      C2042   1.413       .  A
C2041      C2046   1.421       .  A
C2041      H2051   1.082       .  S
C2042      C2047   1.512       .  S
C2042      C2043   1.422       .  A
C2043      C2044   1.411       .  A
C2043      C2048   1.521       .  S
C2044      C2045   1.404       .  A
C2044      H2049   1.083       .  S
C2045      C2046   1.416       .  A
C2046      C2050   1.517       .  S
C2047      C2052   1.418       .  A
C2047      C2056   1.404       .  A
C2048      F2064   1.381       .  S
C2048      F2065   1.382       .  S
C2048      F2066   1.385       .  S
C2050      F2061   1.383       .  S
C2050      F2062   1.384       .  S
C2050      F2063   1.384       .  S
C2052      C2053   1.418       .  A
C2052      C2057   1.517       .  S
C2053      C2054   1.413       .  A
C2053      H2058   1.082       .  S
C2054      C2055   1.428       .  A
C2055      C2056   1.417       .  A
C2055      C2059   1.519       .  S
C2056      H2060   1.083       .  S
C2057      F2070   1.385       .  S
C2057      F2071   1.381       .  S
C2057      F2072   1.383       .  S
C2059      F2067   1.382       .  S
C2059      F2068   1.384       .  S
C2059      F2069   1.385       .  S
C2073      C2074   1.407       .  A
C2073      C2078   1.412       .  A
C2074      C2079   1.492       .  S
C2074      C2075   1.415       .  A
C2075      C2076   1.408       .  A
C2075      C2080   1.518       .  S
C2076      C2077   1.406       .  A
C2076      H2081   1.084       .  S
C2077      C2078   1.412       .  A
C2078      C2082   1.514   1_556  S
C2079      C2088   1.403       .  A
C2080      F2096   1.381       .  S
C2080      F2097   1.382       .  S
C2080      F2098   1.384       .  S
C2082      F2093   1.383   1_554  S
C2082      F2094   1.384       .  S
C2082      F2095   1.384       .  S
C2084      C2085   1.408       .  A
C2085      C2086   1.401       .  A
C2085      H2090   1.084       .  S
C2086      C2087   1.418       .  A
C2087      C2091   1.518       .  S
C2088      H2092   1.084   1_556  S
C2089      F2104   1.382       .  S
C2091      F2099   1.383       .  S
C2091      F2100   1.383       .  S
C2105      C2106   1.405       .  A
C2105      C2110   1.410       .  A
C2105      H2115   1.083       .  S
C2106      C2111   1.488       .  S
C2106      C2107   1.413       .  A
C2107      C2108   1.407       .  A
C2107      C2112   1.517       .  S
C2108      C2109   1.406       .  A
C2108      H2113   1.084       .  S
C2109      C2110   1.415       .  A
C2110      C2114   1.516       .  S
C2111      C2116   1.419       .  A
C2111      C2120   1.400       .  A
C2112      F2128   1.382       .  S
C2112      F2129   1.382       .  S
C2112      F2130   1.385       .  S
C2114      F2125   1.383       .  S
C2114      F2126   1.384       .  S
C2114      F2127   1.382       .  S
C2116      C2117   1.410       .  A
C2116      C2121   1.520       .  S
C2117      C2118   1.402       .  A
C2117      H2122   1.083       .  S
C2118      C2119   1.418       .  A
C2119      C2120   1.404       .  A
C2119      C2123   1.515       .  S
C2120      H2124   1.084       .  S
C2121      F2134   1.385       .  S
C2121      F2135   1.382       .  S
C2121      F2136   1.382       .  S
C2123      F2131   1.384       .  S
C2123      F2132   1.383       .  S
C2123      F2133   1.383       .  S
C2137      C2138   1.404       .  A
C2137      C2142   1.417       .  A
C2137      H2147   1.083       .  S
C2138      C2143   1.497       .  S
C2138      C2139   1.415       .  A
C2139      C2140   1.406       .  A
C2139      C2144   1.521       .  S
C2140      C2141   1.412       .  A
C2140      H2145   1.082       .  S
C2141      C2142   1.429       .  A
C2142      C2146   1.520       .  S
C2143      C2148   1.419       .  A
C2143      C2152   1.403       .  A
C2144      F2160   1.382       .  S
C2144      F2161   1.382       .  S
C2144      F2162   1.385       .  S
C2146      F2157   1.384       .  S
C2146      F2158   1.385       .  S
C2146      F2159   1.381       .  S
C2148      C2149   1.412       .  A
C2148      C2153   1.519       .  S
C2149      C2150   1.405       .  A
C2149      H2154   1.083       .  S
C2150      C2151   1.421       .  A
C2151      C2152   1.411       .  A
C2151      C2155   1.518       .  S
C2152      H2156   1.083       .  S
C2153      F2166   1.385       .  S
C2153      F2167   1.382       .  S
C2153      F2168   1.383       .  S
C2155      F2163   1.384       .  S
C2155      F2164   1.382       .  S
C2155      F2165   1.385       .  S
C2169      C2170   1.400       .  A
C2169      C2174   1.406       .  A
C2169      H2179   1.084       .  S
C2170      C2175   1.490       .  S
C2170      C2171   1.421       .  A
C2171      C2172   1.410       .  A
C2171      C2176   1.520       .  S
C2172      C2173   1.401       .  A
C2172      H2177   1.083       .  S
C2173      C2174   1.420       .  A
C2174      C2178   1.516       .  S
C2175      C2180   1.413       .  A
C2175      C2184   1.405       .  A
C2176      F2192   1.382       .  S
C2176      F2193   1.382       .  S
C2176      F2194   1.384       .  S
C2178      F2189   1.383       .  S
C2178      F2190   1.383       .  S
C2178      F2191   1.383       .  S
C2180      C2181   1.407       .  A
C2180      C2185   1.517       .  S
C2181      C2182   1.405       .  A
C2181      H2186   1.084       .  S
C2182      C2183   1.414       .  A
C2183      C2184   1.409       .  A
C2183      C2187   1.517       .  S
C2184      H2188   1.083       .  S
C2185      F2198   1.384       .  S
C2185      F2199   1.382       .  S
C2185      F2200   1.382       .  S
C2187      F2195   1.385       .  S
C2187      F2196   1.382       .  S
C2187      F2197   1.383       .  S
C2201      C2202   1.401       .  A
C2201      C2206   1.408       .  A
C2201      H2211   1.084       .  S
C2202      C2207   1.490       .  S
C2202      C2203   1.420       .  A
C2203      C2204   1.410       .  A
C2203      C2208   1.521       .  S
C2204      C2205   1.403       .  A
C2204      H2209   1.084       .  S
C2205      C2206   1.418       .  A
C2206      C2210   1.517       .  S
C2207      C2216   1.406       .  A
C2208      F2224   1.383       .  S
C2208      F2226   1.385       .  S
C2210      F2221   1.383       .  S
C2210      F2222   1.383       .  S
C2210      F2223   1.384       .  S
C2212      C2213   1.403       .  A
C2212      C2217   1.520       .  S
C2213      C2214   1.407       .  A
C2213      H2218   1.084       .  S
C2215      C2216   1.410       .  A
C2215      C2219   1.518       .  S
C2216      H2220   1.083       .  S
C2217      F2230   1.385       .  S
C2217      F2231   1.382       .  S
C2217      F2232   1.382       .  S
C2219      F2227   1.383       .  S
C2219      F2229   1.384       .  S
C2233      C2234   1.402       .  A
C2233      C2238   1.413       .  A
C2233      H2243   1.083       .  S
C2234      C2239   1.500       .  S
C2234      C2235   1.417       .  A
C2235      C2236   1.413       .  A
C2235      C2240   1.519       .  S
C2236      C2237   1.410       .  A
C2236      H2241   1.082       .  S
C2237      C2238   1.429       .  A
C2238      C2242   1.522       .  S
C2239      C2244   1.416       .  A
C2239      C2248   1.407       .  A
C2240      F2256   1.382       .  S
C2240      F2257   1.382       .  S
C2240      F2258   1.385       .  S
C2242      F2253   1.385       .  S
C2242      F2254   1.383       .  S
C2242      F2255   1.383       .  S
C2244      C2245   1.409       .  A
C2244      C2249   1.519       .  S
C2245      C2246   1.406       .  A
C2245      H2250   1.083       .  S
C2246      C2247   1.422       .  A
C2247      C2248   1.419       .  A
C2247      C2251   1.518       .  S
C2248      H2252   1.083       .  S
C2249      F2262   1.384       .  S
C2249      F2263   1.382       .  S
C2249      F2264   1.382       .  S
C2251      F2259   1.385       .  S
C2251      F2260   1.384       .  S
C2251      F2261   1.382       .  S
C2265      C2266   1.404       .  A
C2265      H2275   1.083       .  S
C2266      C2271   1.488       .  S
C2267      C2268   1.412       .  A
C2267      C2272   1.518       .  S
C2268      C2269   1.408       .  A
C2268      H2273   1.083       .  S
C2269      C2270   1.415       .  A
C2271      C2276   1.420       .  A
C2271      C2280   1.400       .  A
C2272      F2288   1.383       .  S
C2272      F2289   1.382       .  S
C2272      F2290   1.385       .  S
C2274      F2285   1.383       .  S
C2274      F2286   1.385       .  S
C2276      C2277   1.408       .  A
C2276      C2281   1.519   1_556  S
C2277      C2278   1.400       .  A
C2277      H2282   1.084       .  S
C2278      C2279   1.417       .  A
C2279      C2280   1.404       .  A
C2279      C2283   1.515       .  S
C2280      H2284   1.084       .  S
C2281      F2294   1.385       .  S
C2281      F2295   1.382       .  S
C2283      F2291   1.383       .  S
C2283      F2292   1.383       .  S
C2283      F2293   1.383       .  S
C2297      C2298   1.403       .  A
C2297      C2302   1.409       .  A
C2297      H2307   1.082       .  S
C2298      C2303   1.492       .  S
C2298      C2299   1.424       .  A
C2299      C2300   1.408       .  A
C2299      C2304   1.521       .  S
C2300      C2301   1.397       .  A
C2300      H2305   1.083       .  S
C2301      C2302   1.415       .  A
C2302      C2306   1.516       .  S
C2303      C2308   1.416       .  A
C2303      C2312   1.406       .  A
C2304      F2320   1.381       .  S
C2304      F2321   1.383       .  S
C2304      F2322   1.385       .  S
C2306      F2317   1.383       .  S
C2306      F2318   1.384       .  S
C2306      F2319   1.375       .  S
C2308      C2309   1.409       .  A
C2308      C2313   1.520       .  S
C2309      C2310   1.406       .  A
C2309      H2314   1.083       .  S
C2310      C2311   1.412       .  A
C2311      C2312   1.409       .  A
C2311      C2315   1.516       .  S
C2312      H2316   1.083       .  S
C2313      F2326   1.384       .  S
C2313      F2327   1.383       .  S
C2313      F2328   1.383       .  S
C2315      F2323   1.384       .  S
C2315      F2324   1.383       .  S
C2315      F2325   1.384       .  S
C2329      C2330   1.407       .  A
C2329      C2334   1.417       .  A
C2329      H2339   1.082       .  S
C2330      C2335   1.504       .  S
C2330      C2331   1.419       .  A
C2331      C2332   1.412       .  A
C2331      C2336   1.520       .  S
C2332      C2333   1.407       .  A
C2332      H2337   1.083       .  S
C2333      C2334   1.420       .  A
C2334      C2338   1.518       .  S
C2335      C2340   1.420       .  A
C2335      C2344   1.406       .  A
C2336      F2352   1.382       .  S
C2336      F2353   1.383       .  S
C2336      F2354   1.385       .  S
C2338      F2349   1.383       .  S
C2338      F2350   1.385       .  S
C2338      F2351   1.383       .  S
C2340      C2341   1.415       .  A
C2340      C2345   1.518       .  S
C2341      C2342   1.405       .  A
C2341      H2346   1.083       .  S
C2342      C2343   1.418       .  A
C2343      C2344   1.414       .  A
C2343      C2347   1.517       .  S
C2344      H2348   1.083       .  S
C2345      F2358   1.385       .  S
C2345      F2359   1.382       .  S
C2345      F2360   1.382       .  S
C2347      F2355   1.385       .  S
C2347      F2356   1.384       .  S
C2347      F2357   1.382       .  S
C2361      C2362   1.405       .  A
C2361      C2366   1.410       .  A
C2361      H2371   1.083       .  S
C2362      C2367   1.487       .  S
C2362      C2363   1.412       .  A
C2363      C2364   1.408       .  A
C2363      C2368   1.517       .  S
C2364      C2365   1.406       .  A
C2364      H2369   1.084       .  S
C2365      C2366   1.416       .  A
C2366      C2370   1.519       .  S
C2367      C2372   1.415       .  A
C2367      C2376   1.407       .  A
C2368      F2384   1.382       .  S
C2368      F2385   1.384       .  S
C2368      F2386   1.382       .  S
C2370      F2381   1.384       .  S
C2370      F2382   1.382       .  S
C2370      F2383   1.382       .  S
C2372      C2373   1.404       .  A
C2372      C2377   1.518       .  S
C2373      C2374   1.408       .  A
C2373      H2378   1.086       .  S
C2374      C2375   1.413       .  A
C2375      C2376   1.411       .  A
C2375      C2379   1.516       .  S
C2376      H2380   1.083       .  S
C2377      F2390   1.384       .  S
C2377      F2391   1.383       .  S
C2377      F2392   1.380       .  S
C2379      F2387   1.385       .  S
C2379      F2388   1.383       .  S
C2379      F2389   1.383       .  S
C2393      C2394   1.395       .  A
C2393      C2398   1.399       .  A
C2393      H2403   1.085       .  S
C2394      C2399   1.489       .  S
C2394      C2395   1.420       .  A
C2395      C2396   1.416       .  A
C2396      C2397   1.405       .  A
C2396      H2401   1.083       .  S
C2397      C2398   1.420       .  A
C2398      C2402   1.513       .  S
C2399      C2404   1.419       .  A
C2400      F2416   1.383       .  S
C2400      F2417   1.381       .  S
C2400      F2418   1.384       .  S
C2402      F2413   1.384       .  S
C2402      F2414   1.383       .  S
C2402      F2415   1.383       .  S
C2404      C2409   1.519       .  S
C2405      C2406   1.401       .  A
C2405      H2410   1.083       .  S
C2406      C2407   1.418       .  A
C2407      C2408   1.413       .  A
C2407      C2411   1.517   1_554  S
C2408      H2412   1.083       .  S
C2409      F2422   1.384       .  S
C2409      F2423   1.382       .  S
C2409      F2424   1.381       .  S
C2411      F2419   1.385       .  S
C2411      F2420   1.384   1_556  S
C2411      F2421   1.381       .  S
