geometry optimzed in LAMMPS
_audit_creation_date              2020-12-01 
_audit_creation_method            'lammps2cif' 
_symmetry_space_group_name_H-M    'P1' 
_symmetry_Int_Tables_number       1 
_symmetry_cell_setting            triclinic 
loop_ 
_symmetry_equiv_pos_as_xyz 
  x,y,z 
_cell_length_a                    32.55443013 
_cell_length_b                    32.595660314773376 
_cell_length_c                    43.49743838421476 
_cell_angle_alpha                 89.88322922399287 
_cell_angle_beta                  89.67485205988747 
_cell_angle_gamma                 89.70753688480234 
loop_ 
_atom_site_label 
_atom_site_type_symbol 
_atom_site_fract_x 
_atom_site_fract_y 
_atom_site_fract_z 
_atom_site_charge 
O1          O  0.33361476  0.96471535  0.04733837    -0.75100
O2          O  0.33028349  0.96082752  0.45941822    -0.75100
O3          O  0.39093304  0.96380143  0.00196439    -0.75200
O4          O  0.27291010  0.96152262  0.50481983    -0.75200
O5          O  0.27208023  0.03025353  0.00252935    -0.75100
O6          O  0.38889678  0.03194154  0.50058185    -0.75100
O7          O  0.32906358  0.02912077  0.45772656    -0.75100
O8          O  0.33174191  0.03302888  0.04563365    -0.75200
Ni9        Ni  0.33217646  0.96034686  0.00353466     1.25400
Ni10       Ni  0.33016054  0.03326171  0.50171192     1.25400
C11         C  0.33265800  0.99945723  0.06102301     0.87100
C12         C  0.32961282  0.99432217  0.44403669     0.87000
C13         C  0.40956161  0.99833053  0.00089181     0.87100
C14         C  0.25340530  0.99585494  0.00416533     0.87200
O15         O  0.33338457  0.96324508  0.20825446    -0.75100
O16         O  0.33162541  0.96142416  0.29627602    -0.75100
O17         O  0.27366981  0.96369368  0.25221289    -0.75200
O18         O  0.39135544  0.96092062  0.25241565    -0.75200
O19         O  0.39238649  0.02926132  0.25333874    -0.75100
O20         O  0.27499773  0.03208542  0.25242165    -0.75100
O21         O  0.33225690  0.02981253  0.29687297    -0.75100
O22         O  0.33488157  0.03159940  0.20890277    -0.75200
Ni23       Ni  0.33247379  0.95986660  0.25225146     1.25400
Ni24       Ni  0.33370975  0.03310592  0.25291018     1.25400
C25         C  0.33502756  0.99769379  0.19406775     0.87100
C26         C  0.33074922  0.99537852  0.31105886     0.87000
C27         C  0.25497989  0.99837251  0.25280741     0.87100
C28         C  0.41129346  0.99469169  0.25278549     0.87200
O29         O  0.03852165  0.66526140  0.04199489    -0.75100
O30         O  0.04186069  0.66325257  0.45406314    -0.75100
O31         O  0.03845530  0.72273962  0.99692849    -0.75200
O32         O  0.04179312  0.60518521  0.49921788    -0.75200
O33         O  0.97129863  0.60498072  0.00012497    -0.75100
O34         O  0.97125259  0.72177405  0.49500859    -0.75100
O35         O  0.97366351  0.66032990  0.45362486    -0.75100
O36         O  0.96998530  0.66708369  0.04161694    -0.75200
Ni37       Ni  0.04160375  0.66401075  0.99801883     1.25400
Ni38       Ni  0.96997541  0.66319968  0.49752181     1.25400
C39         C  0.00404502  0.66726144  0.05623216     0.87100
C40         C  0.00807856  0.66187101  0.43918103     0.87000
C41         C  0.00399702  0.74176084  0.99517125     0.87100
C42         C  0.00786074  0.58543504  0.50023242     0.87200
O43         O  0.03583941  0.66920878  0.20295568    -0.75100
O44         O  0.03653386  0.67513149  0.29074511    -0.75100
O45         O  0.03613164  0.61348002  0.24932405    -0.75200
O46         O  0.03584369  0.73113569  0.24452515    -0.75200
O47         O  0.96739218  0.73109263  0.24720882    -0.75100
O48         O  0.96765147  0.61385736  0.24780636    -0.75100
O49         O  0.96829733  0.67253086  0.29145635    -0.75100
O50         O  0.96733554  0.67225221  0.20333883    -0.75200
Ni51       Ni  0.03855847  0.67227844  0.24683010     1.25400
Ni52       Ni  0.96523468  0.67248516  0.24744706     1.25400
C53         C  0.00153524  0.66987590  0.18871053     0.87100
C54         C  0.00255680  0.67412015  0.30573922     0.87000
C55         C  0.00180327  0.59437127  0.24944208     0.87100
C56         C  0.00143894  0.75043338  0.24542092     0.87200
O57         O  0.66439701  0.03300544  0.03794982    -0.75100
O58         O  0.66634990  0.03048266  0.45005722    -0.75100
O59         O  0.60648230  0.03221537  0.99348587    -0.75200
O60         O  0.72356505  0.03112967  0.49501061    -0.75200
O61         O  0.72377615  0.96279509  0.99585751    -0.75100
O62         O  0.60581410  0.96390884  0.49397638    -0.75100
O63         O  0.66647726  0.96208441  0.45109540    -0.75100
O64         O  0.66386666  0.96465290  0.03909853    -0.75200
Ni65       Ni  0.66527920  0.03415413  0.99389500     1.25400
Ni66       Ni  0.66454481  0.96092187  0.49514795     1.25400
C67         C  0.66374050  0.99924921  0.05306509     0.87100
C68         C  0.66715457  0.99592617  0.43608320     0.87000
C69         C  0.58701026  0.99815309  0.99354345     0.87100
C70         C  0.74324237  0.99681639  0.99563022     0.87200
O71         O  0.66786440  0.03311485  0.20102062    -0.75100
O72         O  0.66413006  0.03100301  0.28905217    -0.75100
O73         O  0.72466420  0.03361733  0.24654028    -0.75200
O74         O  0.60740577  0.03070740  0.24407144    -0.75200
O75         O  0.60904056  0.96238550  0.24396901    -0.75100
O76         O  0.72671706  0.96520168  0.24495655    -0.75100
O77         O  0.66692888  0.96265676  0.28841155    -0.75100
O78         O  0.66897749  0.96476394  0.20040071    -0.75200
Ni79       Ni  0.66594941  0.03453314  0.24513498     1.25400
Ni80       Ni  0.66799165  0.96130012  0.24436180     1.25400
C81         C  0.66917938  0.99920088  0.18616286     0.87100
C82         C  0.66475138  0.99652715  0.30323334     0.87000
C83         C  0.74493392  0.99987411  0.24653112     0.87100
C84         C  0.58878549  0.99621851  0.24388964     0.87200
O85         O  0.93990073  0.99786255  0.47364131    -0.75100
O86         O  0.05737037  0.99739063  0.47549782    -0.75100
O87         O  0.99885972  0.93862120  0.47351180    -0.75200
O88         O  0.99819361  0.05612112  0.47568745    -0.75200
O89         O  0.99611100  0.05443828  0.02570179    -0.75100
O90         O  0.99832857  0.93716506  0.02335208    -0.75100
O91         O  0.05594146  0.99622450  0.02569568    -0.75100
O92         O  0.93850400  0.99515857  0.02321409    -0.75200
Ni93       Ni  0.99866398  0.99749839  0.47274531     1.25400
Ni94       Ni  0.99712147  0.99566174  0.02631287     1.25400
C95         C  0.92029816  0.99731208  0.99722858     0.87100
C96         C  0.07632251  0.99703065  0.00042633     0.87000
C97         C  0.99950149  0.91869981  0.99743048     0.87100
C98         C  0.99703864  0.07478959  0.00049466     0.87200
O99         O  0.94237405  0.00658058  0.22503221    -0.75100
O100        O  0.05965713  0.00774684  0.22742454    -0.75100
O101        O  0.00177112  0.94845612  0.22437458    -0.75200
O102        O  0.00015811  0.06590041  0.22830246    -0.75200
O103        O  0.99879336  0.06279421  0.27940960    -0.75100
O104        O  0.99840330  0.94543964  0.27554428    -0.75100
O105        O  0.05758059  0.00335082  0.27861121    -0.75100
O106        O  0.93995893  0.00451471  0.27625902    -0.75200
Ni107      Ni  0.00110381  0.00732130  0.22446953     1.25400
Ni108      Ni  0.99866166  0.00396683  0.27929463     1.25400
C109        C  0.92185529  0.00473599  0.25018087     0.87100
C110        C  0.07790780  0.00564791  0.25336354     0.87000
C111        C  0.99950406  0.92760915  0.24933799     0.87100
C112        C  0.99901491  0.08381414  0.25451432     0.87200
O113        O  0.96409906  0.32952221  0.04811063    -0.75100
O114        O  0.96899008  0.33268767  0.46055433    -0.75100
O115        O  0.96561938  0.27200261  0.00316712    -0.75200
O116        O  0.96897780  0.38987901  0.50561043    -0.75200
O117        O  0.03582513  0.38799149  0.00711777    -0.75100
O118        O  0.03392485  0.27013016  0.50422223    -0.75100
O119        O  0.03725387  0.33055234  0.46155675    -0.75100
O120        O  0.03250514  0.32765089  0.04962408    -0.75200
Ni121      Ni  0.96404798  0.33090049  0.00410922     1.25400
Ni122      Ni  0.03797143  0.32867997  0.50559706     1.25400
C123        C  0.99758707  0.32843293  0.06338408     0.87100
C124        C  0.00366665  0.33237093  0.44644438     0.87000
C125        C  0.99965359  0.25206450  0.00303854     0.87100
C126        C  0.00197055  0.40817372  0.00680897     0.87200
O127        O  0.03036683  0.33913735  0.21009326    -0.75100
O128        O  0.03239334  0.33874385  0.29791457    -0.75100
O129        O  0.03091411  0.28014071  0.25364240    -0.75200
O130        O  0.03194615  0.39762027  0.25405231    -0.75200
O131        O  0.96343146  0.39842464  0.25426753    -0.75100
O132        O  0.96238570  0.28086405  0.25576361    -0.75100
O133        O  0.96404366  0.34021358  0.29907115    -0.75100
O134        O  0.96191381  0.33900828  0.21102319    -0.75200
Ni135      Ni  0.03382367  0.33885230  0.25392835     1.25400
Ni136      Ni  0.96047747  0.33966803  0.25511158     1.25400
C137        C  0.99592279  0.33935752  0.19603696     0.87100
C138        C  0.99855103  0.33989128  0.31308019     0.87000
C139        C  0.99652860  0.26125179  0.25449212     0.87100
C140        C  0.99783663  0.41734272  0.25361497     0.87200
C141        C  0.00414781  0.33504146  0.41230031    -0.06800
C142        C  0.96915538  0.35111284  0.39767233    -0.17900
C143        C  0.96694810  0.35462061  0.36569234     0.10400
C144        C  0.99979023  0.33999363  0.34721106    -0.06700
C145        C  0.03492008  0.32417823  0.36178129    -0.17900
C146        C  0.03777811  0.32215137  0.39383111     0.10500
S147        S  0.92215537  0.37997355  0.35037369    -0.32900
S148        S  0.08468488  0.30146770  0.40930616    -0.32900
H149        H  0.09556191  0.33892725  0.42300750     0.28500
H150        H  0.94462673  0.40416397  0.32942830     0.28500
H151        H  0.94346595  0.36222235  0.41130655     0.19100
H152        H  0.06051476  0.31296499  0.34809512     0.19100
C153        C  0.99636515  0.32998455  0.09736116    -0.06800
C154        C  0.02725221  0.35206384  0.11232825    -0.17900
C155        C  0.02682357  0.35726339  0.14418867     0.10400
C156        C  0.99549898  0.33881417  0.16203961    -0.06700
C157        C  0.96424778  0.31715900  0.14708621    -0.17900
C158        C  0.96450579  0.31222761  0.11511435     0.10500
S159        S  0.06586271  0.38975602  0.16026920    -0.32900
S160        S  0.92467840  0.28099982  0.09877077    -0.32900
H161        H  0.95073784  0.26164539  0.07729008     0.28500
H162        H  0.03938758  0.40858935  0.18177096     0.28500
H163        H  0.05126975  0.36672861  0.09896739     0.19100
H164        H  0.94025242  0.30255299  0.16049864     0.19100
C165        C  0.99833916  0.12938342  0.25559200    -0.06800
C166        C  0.01583230  0.15106199  0.23081745    -0.17900
C167        C  0.01482848  0.19392828  0.22962937     0.10400
C168        C  0.99632596  0.21612826  0.25384540    -0.06700
C169        C  0.97829215  0.19483939  0.27840236    -0.17900
C170        C  0.97944128  0.15190829  0.27973888     0.10500
S171        S  0.03621632  0.21853624  0.19603952    -0.32900
S172        S  0.95473685  0.12792626  0.31217865    -0.32900
H173        H  0.99212695  0.11318538  0.32409678     0.28500
H174        H  0.00658064  0.25000561  0.19478273     0.28500
H175        H  0.03018936  0.13450644  0.21200057     0.19100
H176        H  0.96387101  0.21183574  0.29698279     0.19100
C177        C  0.99605417  0.12015103  0.00121366    -0.06800
C178        C  0.01283594  0.14165424  0.47741777    -0.17900
C179        C  0.01457639  0.18451404  0.47721351     0.10400
C180        C  0.99910862  0.20681260  0.00198969    -0.06700
C181        C  0.97374186  0.18556765  0.02268085    -0.17900
C182        C  0.97196582  0.14263903  0.02260850     0.10500
S183        S  0.03557387  0.20914253  0.44359144    -0.32900
S184        S  0.93726352  0.11885368  0.04967462    -0.32900
H185        H  0.92439850  0.08768560  0.02970178     0.28500
H186        H  0.06420840  0.23240176  0.46002800     0.28500
H187        H  0.02597917  0.12500290  0.45816474     0.19100
H188        H  0.95514551  0.20256288  0.03906174     0.19100
C189        C  0.79003217  0.00088110  0.24836285    -0.06800
C190        C  0.81293027  0.97802644  0.22702412    -0.17900
C191        C  0.85584632  0.97838628  0.22724815     0.10400
C192        C  0.87663661  0.00253240  0.24917059    -0.06700
C193        C  0.85365630  0.02495426  0.27082561    -0.17900
C194        C  0.81069512  0.02418886  0.27078071     0.10500
S195        S  0.88199839  0.94612651  0.19968480    -0.32900
S196        S  0.78409790  0.05224286  0.30060357    -0.32900
H197        H  0.75294876  0.02300372  0.30483072     0.28500
H198        H  0.91260515  0.93279404  0.22012485     0.28500
H199        H  0.79725726  0.95964536  0.21005112     0.19100
H200        H  0.86927859  0.04318028  0.28794408     0.19100
C201        C  0.66770008  0.99548222  0.40211628    -0.06800
C202        C  0.64354701  0.02454680  0.38657650    -0.17900
C203        C  0.64081777  0.02465931  0.35452693     0.10400
C204        C  0.66374454  0.99580359  0.33720915    -0.06700
C205        C  0.68779162  0.96655713  0.35273229    -0.17900
C206        C  0.69039308  0.96635548  0.38485872     0.10500
S207        S  0.60571460  0.06092206  0.33737025    -0.32900
S208        S  0.72502135  0.92979356  0.40219362    -0.32900
H209        H  0.73903386  0.95669474  0.42507853     0.28500
H210        H  0.59149222  0.03366376  0.31479002     0.28500
H211        H  0.62548108  0.04657943  0.39958028     0.19100
H212        H  0.70590531  0.94460015  0.33969870     0.19100
C213        C  0.66410165  0.99990482  0.08712017    -0.06800
C214        C  0.68626323  0.96914090  0.10252715    -0.17900
C215        C  0.69003165  0.96917329  0.13453241     0.10400
C216        C  0.66989858  0.99983919  0.15208340    -0.06700
C217        C  0.64796989  0.03082974  0.13668798    -0.17900
C218        C  0.64450614  0.03099992  0.10459885     0.10500
S219        S  0.72298992  0.93060821  0.15123071    -0.32900
S220        S  0.61255281  0.07024968  0.08769270    -0.32900
H221        H  0.59470485  0.04403723  0.06590376     0.28500
H222        H  0.73974871  0.95711155  0.17327565     0.28500
H223        H  0.70197898  0.94548246  0.08946215     0.19100
H224        H  0.63202602  0.05429198  0.14981920     0.19100
C225        C  0.78853795  0.99664400  0.99664786    -0.06800
C226        C  0.80973473  0.02680028  0.48157545    -0.17900
C227        C  0.85265126  0.02805584  0.48188896     0.10400
C228        C  0.87514922  0.99816824  0.99656572    -0.06700
C229        C  0.85383622  0.96940212  0.01445111    -0.17900
C230        C  0.81094498  0.96845902  0.01486235     0.10500
S231        S  0.87731182  0.06952798  0.46154322    -0.32900
S232        S  0.78687617  0.93184385  0.04020851    -0.32900
H233        H  0.75634747  0.95931947  0.05048450     0.28500
H234        H  0.90894010  0.07479893  0.48300864     0.28500
H235        H  0.79310124  0.04972129  0.46845386     0.19100
H236        H  0.87078206  0.94754482  0.02835135     0.19100
C237        C  0.99836558  0.46260594  0.25231953    -0.06800
C238        C  0.02491050  0.48390415  0.27187820    -0.17900
C239        C  0.02603247  0.52683211  0.27196994     0.10400
C240        C  0.00116807  0.54915069  0.25124273    -0.07700
C241        C  0.97477449  0.52783167  0.23157557    -0.17900
C242        C  0.97316716  0.48483330  0.23180732     0.10500
S243        S  0.05797811  0.55124728  0.30023005    -0.32900
S244        S  0.94081491  0.45866752  0.20455176    -0.32900
H245        H  0.92438561  0.49393490  0.19044748     0.28500
H246        H  0.03032688  0.58352008  0.30645205     0.28500
H247        H  0.04399315  0.46697996  0.28788840     0.19100
H248        H  0.95596742  0.54501160  0.21557297     0.19100
C249        C  0.99829988  0.88231458  0.24782415    -0.06800
C250        C  0.02316242  0.86210089  0.22606068    -0.17900
C251        C  0.02428957  0.81920022  0.22429623     0.10400
C252        C  0.00059294  0.79570476  0.24509583    -0.06700
C253        C  0.97505464  0.81588414  0.26636065    -0.17900
C254        C  0.97328267  0.85871060  0.26775179     0.10500
S255        S  0.05525993  0.79641387  0.19430672    -0.32900
S256        S  0.93728824  0.88108843  0.29465974    -0.32900
H257        H  0.92513812  0.91333734  0.27515670     0.28500
H258        H  0.02813566  0.76396839  0.18830954     0.28500
H259        H  0.04196080  0.87985275  0.21032980     0.19100
H260        H  0.95624471  0.79808519  0.28206856     0.19100
C261        C  0.00806420  0.53996006  0.50216939    -0.06800
C262        C  0.97360585  0.52068895  0.01801233    -0.17900
C263        C  0.97232267  0.47793387  0.02109156     0.10400
C264        C  0.00554447  0.45335787  0.50731451    -0.06700
C265        C  0.03748848  0.47271671  0.49116808    -0.17900
C266        C  0.03882582  0.51541065  0.48815250     0.10500
S267        S  0.93163906  0.45672493  0.04439707    -0.32900
S268        S  0.07846597  0.53624911  0.46386448    -0.32900
H269        H  0.05053946  0.56156565  0.44810365     0.28500
H270        H  0.95630538  0.42602993  0.05782115     0.28500
H271        H  0.94979681  0.53898010  0.02894438     0.19100
H272        H  0.06065456  0.45434916  0.47954517     0.19100
C273        C  0.00351703  0.67316209  0.33995591    -0.06800
C274        C  0.04075682  0.66303103  0.35441416    -0.17900
C275        C  0.04348644  0.65845897  0.38633217     0.10400
C276        C  0.00793961  0.66392568  0.40492940    -0.06700
C277        C  0.97082471  0.67450757  0.39041933    -0.17900
C278        C  0.96837162  0.68002730  0.35859879     0.10500
S279        S  0.09335938  0.64514064  0.40117905    -0.32900
S280        S  0.91988206  0.69807316  0.34387639    -0.32900
H281        H  0.93780263  0.72836821  0.32505568     0.28500
H282        H  0.07840095  0.61293299  0.41934602     0.28500
H283        H  0.06814468  0.65768623  0.34069531     0.19100
H284        H  0.94344144  0.68014199  0.40407581     0.19100
C285        C  0.00367776  0.66924492  0.09005797    -0.06800
C286        C  0.02585968  0.63952384  0.10647169    -0.17900
C287        C  0.02465936  0.63830513  0.13860803     0.10400
C288        C  0.00154901  0.66805047  0.15487568    -0.06700
C289        C  0.97948117  0.69790525  0.13847052    -0.17900
C290        C  0.98078088  0.69917412  0.10629798     0.10500
S291        S  0.05158503  0.59689158  0.15744484    -0.32900
S292        S  0.95459735  0.74098498  0.08737970    -0.32900
H293        H  0.98363857  0.74535726  0.06355001     0.28500
H294        H  0.02246009  0.59178381  0.18113473     0.28500
H295        H  0.04319838  0.61627174  0.09412569     0.19100
H296        H  0.96230985  0.72125924  0.15083532     0.19100
C297        C  0.00351820  0.78697046  0.99407591    -0.06800
C298        C  0.02940084  0.80824281  0.01408632    -0.17900
C299        C  0.02831231  0.85102381  0.01580783     0.10400
C300        C  0.00132551  0.87347000  0.99673121    -0.06700
C301        C  0.97657561  0.85210117  0.47699957    -0.17900
C302        C  0.97783013  0.80923328  0.47505468     0.10500
S303        S  0.06355564  0.87549303  0.04159083    -0.32900
S304        S  0.94621960  0.78524113  0.44636871    -0.32900
H305        H  0.97466551  0.75408089  0.43903135     0.28500
H306        H  0.03203157  0.88775821  0.06189572     0.28500
H307        H  0.04999757  0.79136277  0.02904101     0.19100
H308        H  0.95625627  0.86913176  0.46193228     0.19100
C309        C  0.45674994  0.99428476  0.25131638    -0.06800
C310        C  0.47627555  0.02588447  0.23492401    -0.17900
C311        C  0.51907704  0.02684224  0.23140242     0.10400
C312        C  0.54328507  0.99544214  0.24474856    -0.06700
C313        C  0.52372102  0.96346463  0.26073722    -0.17900
C314        C  0.48100069  0.96284713  0.26456402     0.10500
S315        S  0.54179246  0.06698013  0.20819354    -0.32900
S316        S  0.45980968  0.92244622  0.28806484    -0.32900
H317        H  0.43083387  0.94784541  0.30294096     0.28500
H318        H  0.50610624  0.09103169  0.20476679     0.28500
H319        H  0.45773403  0.04946884  0.22414413     0.19100
H320        H  0.54197943  0.93954334  0.27143465     0.19100
C321        C  0.12311494  0.00542172  0.25407608    -0.06800
C322        C  0.14317830  0.97536566  0.27164233    -0.17900
C323        C  0.18608063  0.97250834  0.27197105     0.10400
C324        C  0.20965981  0.99995147  0.25392694    -0.06700
C325        C  0.18947895  0.03042516  0.23677900    -0.17900
C326        C  0.14665134  0.03365167  0.23684093     0.10500
S327        S  0.20865938  0.93426573  0.29676213    -0.32900
S328        S  0.12399239  0.07527952  0.21531834    -0.32900
H329        H  0.09192815  0.08278884  0.23641037     0.28500
H330        H  0.24069407  0.95953271  0.30696698     0.28500
H331        H  0.12527060  0.95383017  0.28512688     0.19100
H332        H  0.20723110  0.05199592  0.22321460     0.19100
C333        C  0.54156386  0.99864283  0.99367558    -0.06800
C334        C  0.52122950  0.02997159  0.00992222    -0.17900
C335        C  0.47847845  0.03022361  0.01330632     0.10400
C336        C  0.45496707  0.99893445  0.99950305    -0.06700
C337        C  0.47480445  0.96788753  0.48259833    -0.17900
C338        C  0.51753855  0.96778268  0.47902180     0.10500
S339        S  0.45632554  0.06992014  0.03708556    -0.32900
S340        S  0.53970326  0.92851052  0.45485224    -0.32900
H341        H  0.56943206  0.95430536  0.44148618     0.28500
H342        H  0.42772937  0.04393770  0.05159040     0.28500
H343        H  0.53889440  0.05365245  0.02115972     0.19100
H344        H  0.45710239  0.94414551  0.47145854     0.19100
C345        C  0.32831339  0.99461847  0.34499207    -0.06800
C346        C  0.35015582  0.96406911  0.36082591    -0.17900
C347        C  0.35056986  0.96277742  0.39295531     0.10400
C348        C  0.32910321  0.99304243  0.41001311    -0.06700
C349        C  0.30689203  0.02336406  0.39413844    -0.17900
C350        C  0.30551334  0.02395796  0.36198880     0.10500
S351        S  0.38148964  0.92356523  0.41075787    -0.32900
S352        S  0.27246189  0.06161618  0.34423340    -0.32900
H353        H  0.25857203  0.03531408  0.32093209     0.28500
H354        H  0.34691751  0.90229513  0.42186178     0.28500
H355        H  0.36776061  0.94141745  0.34807229     0.19100
H356        H  0.28955671  0.04621150  0.40689816     0.19100
C357        C  0.33644051  0.99858750  0.16007150    -0.06800
C358        C  0.31506958  0.02991552  0.14465693    -0.17900
C359        C  0.31270892  0.03080887  0.11254106     0.10400
C360        C  0.33312538  0.00024646  0.09506563    -0.06700
C361        C  0.35500230  0.96927283  0.11052656    -0.17900
C362        C  0.35735539  0.96839912  0.14261339     0.10500
S363        S  0.28101542  0.07024180  0.09562145    -0.32900
S364        S  0.38930011  0.92921517  0.15964293    -0.32900
H365        H  0.40542380  0.95492098  0.18251532     0.28500
H366        H  0.26293491  0.04412078  0.07389152     0.28500
H367        H  0.29865954  0.05306906  0.15777930     0.19100
H368        H  0.37136284  0.94602393  0.09746598     0.19100
C369        C  0.20821942  0.99579913  0.00418178    -0.06800
C370        C  0.18726833  0.02190466  0.48412617    -0.17900
C371        C  0.14441927  0.02340818  0.48291724     0.10400
C372        C  0.12165584  0.99759760  0.00136426    -0.06700
C373        C  0.14182656  0.97424710  0.02395470    -0.17900
C374        C  0.18475120  0.97326047  0.02569595     0.10500
S375        S  0.12150509  0.06032334  0.45717207    -0.32900
S376        S  0.20751732  0.94383212  0.05641372    -0.32900
H377        H  0.24065589  0.97048817  0.06126531     0.28500
H378        H  0.08955252  0.07158323  0.47742000     0.28500
H379        H  0.20488948  0.04170106  0.46901205     0.19100
H380        H  0.12402464  0.95662721  0.04040384     0.19100
O381        O  0.33330998  0.96395177  0.54720352    -0.75100
O382        O  0.33062800  0.96073400  0.95956178    -0.75100
O383        O  0.39057754  0.96359793  0.50178172    -0.75200
O384        O  0.27328493  0.96186068  0.00501444    -0.75200
O385        O  0.27161425  0.02991191  0.50277937    -0.75100
O386        O  0.38939380  0.03213948  0.00042197    -0.75100
O387        O  0.32954559  0.02901533  0.95754427    -0.75100
O388        O  0.33123197  0.03230154  0.54586112    -0.75200
Ni389      Ni  0.33182516  0.96004429  0.50336326     1.25400
Ni390      Ni  0.33064902  0.03355214  0.00149410     1.25400
C391        C  0.33225077  0.99856476  0.56105427     0.87100
C392        C  0.32995954  0.99410579  0.94401833     0.87000
C393        C  0.40913552  0.99817255  0.50081866     0.87100
C394        C  0.25294888  0.99549584  0.50425024     0.87200
O395        O  0.33365738  0.96236340  0.70820325    -0.75100
O396        O  0.33156675  0.96073332  0.79625736    -0.75100
O397        O  0.27373039  0.96282930  0.75205666    -0.75200
O398        O  0.39146188  0.96026781  0.75253440    -0.75200
O399        O  0.39228536  0.02861461  0.75334566    -0.75100
O400        O  0.27495617  0.03124467  0.75218470    -0.75100
O401        O  0.33209200  0.02912222  0.79678083    -0.75100
O402        O  0.33484520  0.03075180  0.70879526    -0.75200
Ni403      Ni  0.33257161  0.95908660  0.75222756     1.25400
Ni404      Ni  0.33362936  0.03234296  0.75280457     1.25400
C405        C  0.33505644  0.99681756  0.69400073     0.87100
C406        C  0.33063778  0.99471282  0.81100937     0.87000
C407        C  0.25500707  0.99750353  0.75248525     0.87100
C408        C  0.41129615  0.99410328  0.75291950     0.87200
O409        O  0.03983991  0.66523755  0.54211769    -0.75100
O410        O  0.03993778  0.66307450  0.95396107    -0.75100
O411        O  0.03968502  0.72278492  0.49716522    -0.75200
O412        O  0.03970633  0.60519378  0.99917291    -0.75200
O413        O  0.97337479  0.60455965  0.50007752    -0.75100
O414        O  0.97000008  0.72221612  0.99507013    -0.75100
O415        O  0.97172101  0.66074082  0.95366595    -0.75100
O416        O  0.97129808  0.66668411  0.54147654    -0.75200
Ni417      Ni  0.04325831  0.66406355  0.49814648     1.25400
Ni418      Ni  0.96831680  0.66364832  0.99761687     1.25400
C419        C  0.00524350  0.66713030  0.55620945     0.87100
C420        C  0.00610479  0.66188495  0.93914170     0.87000
C421        C  0.00509743  0.74156618  0.49536941     0.87100
C422        C  0.00566631  0.58564158  0.00017932     0.87200
O423        O  0.03551312  0.66996861  0.70295187    -0.75100
O424        O  0.03532386  0.67508130  0.79076997    -0.75100
O425        O  0.03644083  0.61392332  0.74889687    -0.75200
O426        O  0.03418181  0.73139707  0.74474545    -0.75200
O427        O  0.96570352  0.73040702  0.74684187    -0.75100
O428        O  0.96800710  0.61311848  0.74755646    -0.75100
O429        O  0.96711669  0.67180911  0.79115538    -0.75100
O430        O  0.96696071  0.67150815  0.70304947    -0.75200
Ni431      Ni  0.03781748  0.67268332  0.74682424     1.25400
Ni432      Ni  0.96450165  0.67172065  0.74714180     1.25400
C433        C  0.00131400  0.66993215  0.68857486     0.87100
C434        C  0.00122608  0.67364049  0.80560468     0.87000
C435        C  0.00250516  0.59417849  0.74903423     0.87100
C436        C  0.99951469  0.75019274  0.74520633     0.87200
O437        O  0.66324449  0.03303052  0.53802008    -0.75100
O438        O  0.66621573  0.03048013  0.94998634    -0.75100
O439        O  0.60603295  0.03227745  0.49307874    -0.75200
O440        O  0.72403779  0.03117863  0.99437465    -0.75200
O441        O  0.72323939  0.96276423  0.49630239    -0.75100
O442        O  0.60633758  0.96384602  0.99431264    -0.75100
O443        O  0.66655078  0.96208041  0.95104746    -0.75100
O444        O  0.66281164  0.96466999  0.53911736    -0.75200
Ni445      Ni  0.66480815  0.03416470  0.49397404     1.25400
Ni446      Ni  0.66508594  0.96090589  0.99511067     1.25400
C447        C  0.66248459  0.99925254  0.55310142     0.87100
C448        C  0.66708691  0.99592013  0.93602576     0.87000
C449        C  0.58653058  0.99823410  0.49308054     0.87100
C450        C  0.74275405  0.99675891  0.49641118     0.87200
O451        O  0.66732969  0.03317795  0.70097385    -0.75100
O452        O  0.66475201  0.03107576  0.78899492    -0.75100
O453        O  0.72475470  0.03352848  0.74604561    -0.75200
O454        O  0.60745681  0.03083349  0.74445717    -0.75200
O455        O  0.60901412  0.96251097  0.74430745    -0.75100
O456        O  0.72667030  0.96510621  0.74454017    -0.75100
O457        O  0.66734998  0.96272101  0.78838148    -0.75100
O458        O  0.66840781  0.96482029  0.70037146    -0.75200
Ni459      Ni  0.66602110  0.03457843  0.74508447     1.25400
Ni460      Ni  0.66794025  0.96133799  0.74432824     1.25400
C461        C  0.66842733  0.99925716  0.68612906     0.87100
C462        C  0.66533419  0.99661369  0.80318727     0.87000
C463        C  0.74496416  0.99974526  0.74595155     0.87100
C464        C  0.58879980  0.99636103  0.74435820     0.87200
O465        O  0.94061662  0.99842789  0.97197098    -0.75100
O466        O  0.05799318  0.99717866  0.97445442    -0.75100
O467        O  0.99916895  0.93886004  0.97210376    -0.75200
O468        O  0.99935225  0.05641957  0.97450619    -0.75200
O469        O  0.99625127  0.05423742  0.52685204    -0.75100
O470        O  0.99793431  0.93691258  0.52475760    -0.75100
O471        O  0.05570317  0.99574062  0.52676369    -0.75100
O472        O  0.93826939  0.99510691  0.52491661    -0.75200
Ni473      Ni  0.99937214  0.99774834  0.97141908     1.25400
Ni474      Ni  0.99694491  0.99543294  0.52764287     1.25400
C475        C  0.91983467  0.99698655  0.49902102     0.87100
C476        C  0.07585069  0.99686932  0.50141886     0.87000
C477        C  0.99920096  0.91845043  0.49883366     0.87100
C478        C  0.99644544  0.07461944  0.50164026     0.87200
O479        O  0.94232519  0.00639272  0.72385979    -0.75100
O480        O  0.05961982  0.00699657  0.72619926    -0.75100
O481        O  0.00133779  0.94802832  0.72316225    -0.75200
O482        O  0.00039855  0.06551857  0.72720424    -0.75200
O483        O  0.99901239  0.06223357  0.77831146    -0.75100
O484        O  0.99809733  0.94498393  0.77434133    -0.75100
O485        O  0.05759288  0.00265804  0.77737759    -0.75100
O486        O  0.93999231  0.00419100  0.77509155    -0.75200
Ni487      Ni  0.00105098  0.00689616  0.72328555     1.25400
Ni488      Ni  0.99867074  0.00345658  0.77811245     1.25400
C489        C  0.92185934  0.00447402  0.74902510     0.87100
C490        C  0.07791929  0.00490076  0.75212092     0.87000
C491        C  0.99884051  0.92719823  0.74812505     0.87100
C492        C  0.99928301  0.08333241  0.75346386     0.87200
O493        O  0.96519411  0.32985663  0.54837610    -0.75100
O494        O  0.96886214  0.33257257  0.96017176    -0.75100
O495        O  0.96543152  0.27230934  0.50346917    -0.75200
O496        O  0.96743588  0.38961388  0.00530811    -0.75200
O497        O  0.03737913  0.38738006  0.50681624    -0.75100
O498        O  0.03408359  0.27075472  0.00415139    -0.75100
O499        O  0.03713405  0.33149885  0.96172658    -0.75100
O500        O  0.03360446  0.32726395  0.54954131    -0.75200
Ni501      Ni  0.96470740  0.33121032  0.50444102     1.25400
Ni502      Ni  0.03729785  0.32934447  0.00573444     1.25400
C503        C  0.99879714  0.32837762  0.56346401     0.87100
C504        C  0.00376279  0.33296538  0.94634963     0.87000
C505        C  0.99920886  0.25196994  0.50318623     0.87100
C506        C  0.00378158  0.40799346  0.50683274     0.87200
O507        O  0.03213050  0.33797723  0.71000437    -0.75100
O508        O  0.03433731  0.33879331  0.79783224    -0.75100
O509        O  0.03245582  0.27951020  0.75392480    -0.75200
O510        O  0.03411724  0.39695444  0.75335235    -0.75200
O511        O  0.96563183  0.39814548  0.75395181    -0.75100
O512        O  0.96393346  0.28061774  0.75601053    -0.75100
O513        O  0.96597605  0.34048878  0.79905332    -0.75100
O514        O  0.96366612  0.33841829  0.71105875    -0.75200
Ni515      Ni  0.03568243  0.33821290  0.75381000     1.25400
Ni516      Ni  0.96234076  0.33944618  0.75511885     1.25400
C517        C  0.99763706  0.33849592  0.69602934     0.87100
C518        C  0.00051365  0.34038752  0.81301442     0.87000
C519        C  0.99796475  0.26080364  0.75469679     0.87100
C520        C  0.00012116  0.41687585  0.75279918     0.87200
C521        C  0.00489041  0.33608979  0.91223383    -0.06800
C522        C  0.97072611  0.35345743  0.89734908    -0.17900
C523        C  0.96921464  0.35718113  0.86533741     0.10400
C524        C  0.00169422  0.34119264  0.84712936    -0.06700
C525        C  0.03617764  0.32448691  0.86196715    -0.17900
C526        C  0.03850774  0.32246110  0.89404291     0.10500
S527        S  0.92596164  0.38465795  0.84957141    -0.32900
S528        S  0.08467377  0.30073723  0.90993818    -0.32900
H529        H  0.09624351  0.33798108  0.92364514     0.28500
H530        H  0.94968050  0.40674660  0.82808920     0.28500
H531        H  0.94525583  0.36540913  0.91081604     0.19100
H532        H  0.06159302  0.31247395  0.84847393     0.19100
C533        C  0.99774891  0.32975669  0.59741801    -0.06800
C534        C  0.02861518  0.35186477  0.61236890    -0.17900
C535        C  0.02823752  0.35691500  0.64423889     0.10400
C536        C  0.99709924  0.33814515  0.66207364    -0.06700
C537        C  0.96583613  0.31653514  0.64714071    -0.17900
C538        C  0.96593663  0.31188487  0.61516752     0.10500
S539        S  0.06698979  0.38971061  0.66036569    -0.32900
S540        S  0.92585694  0.28098131  0.59882903    -0.32900
H541        H  0.95159655  0.26207912  0.57696394     0.28500
H542        H  0.04049328  0.40800053  0.68210629     0.28500
H543        H  0.05250718  0.36670731  0.59899265     0.19100
H544        H  0.94192066  0.30180907  0.66056048     0.19100
C545        C  0.99872194  0.12887925  0.75474025    -0.06800
C546        C  0.01699151  0.15074400  0.73039453    -0.17900
C547        C  0.01640969  0.19363727  0.72957940     0.10400
C548        C  0.99749823  0.21566435  0.75373366    -0.06700
C549        C  0.97858901  0.19415974  0.77780910    -0.17900
C550        C  0.97934077  0.15120397  0.77877836     0.10500
S551        S  0.03885056  0.21852060  0.69649879    -0.32900
S552        S  0.95348919  0.12690470  0.81057798    -0.32900
H553        H  0.99046318  0.11220367  0.82322091     0.28500
H554        H  0.00919036  0.24993126  0.69490418     0.28500
H555        H  0.03167842  0.13431887  0.71165318     0.19100
H556        H  0.96377846  0.21098844  0.79630495     0.19100
C557        C  0.99520809  0.12014106  0.50220830    -0.06800
C558        C  0.02052003  0.14159047  0.97998657    -0.17900
C559        C  0.02269963  0.18440004  0.98043567     0.10400
C560        C  0.99812652  0.20684524  0.50216833    -0.06700
C561        C  0.97936672  0.18569699  0.52648322    -0.17900
C562        C  0.97734849  0.14280721  0.52670583     0.10500
S563        S  0.05425090  0.20892995  0.95183447    -0.32900
S564        S  0.94975374  0.11942435  0.55816578    -0.32900
H565        H  0.92895354  0.09118289  0.53950084     0.28500
H566        H  0.08183354  0.22442931  0.97364919     0.28500
H567        H  0.03875228  0.12486155  0.96323153     0.19100
H568        H  0.96586139  0.20274909  0.54536882     0.19100
C569        C  0.79007504  0.00067561  0.74758185    -0.06800
C570        C  0.81282180  0.97756031  0.72630057    -0.17900
C571        C  0.85574818  0.97791534  0.72636110     0.10400
C572        C  0.87666387  0.00227954  0.74808424    -0.06700
C573        C  0.85383776  0.02491116  0.76968969    -0.17900
C574        C  0.81089646  0.02418414  0.76979250     0.10500
S575        S  0.88172457  0.94546028  0.69882509    -0.32900
S576        S  0.78453788  0.05256618  0.79955320    -0.32900
H577        H  0.75351220  0.02329264  0.80415901     0.28500
H578        H  0.91275872  0.93257281  0.71904234     0.28500
H579        H  0.79702770  0.95901080  0.70949471     0.19100
H580        H  0.86957450  0.04328572  0.78666028     0.19100
C581        C  0.66774129  0.99547561  0.90206613    -0.06800
C582        C  0.64374690  0.02460835  0.88646857    -0.17900
C583        C  0.64128455  0.02481231  0.85441050     0.10400
C584        C  0.66428329  0.99594169  0.83715387    -0.06700
C585        C  0.68821206  0.96665905  0.85273240    -0.17900
C586        C  0.69059913  0.96641396  0.88486636     0.10500
S587        S  0.60643309  0.06123728  0.83715685    -0.32900
S588        S  0.72522673  0.92993390  0.90229591    -0.32900
H589        H  0.73920129  0.95695636  0.92511488     0.28500
H590        H  0.59210915  0.03399075  0.81460639     0.28500
H591        H  0.62562823  0.04664725  0.89942490     0.19100
H592        H  0.70639678  0.94471429  0.83974273     0.19100
C593        C  0.66268754  0.99983951  0.58714358    -0.06800
C594        C  0.68515204  0.96926480  0.60249990    -0.17900
C595        C  0.68908051  0.96935716  0.63447771     0.10400
C596        C  0.66878617  0.99986301  0.65206510    -0.06700
C597        C  0.64644634  0.03062549  0.63673510    -0.17900
C598        C  0.64283776  0.03074668  0.60464892     0.10500
S599        S  0.72250906  0.93113294  0.65108910    -0.32900
S600        S  0.61046008  0.06967453  0.58777290    -0.32900
H601        H  0.59315281  0.04341842  0.56576877     0.28500
H602        H  0.73920694  0.95786065  0.67300792     0.28500
H603        H  0.70104208  0.94575169  0.58940674     0.19100
H604        H  0.63035959  0.05394497  0.64991395     0.19100
C605        C  0.78808637  0.99657913  0.49794515    -0.06800
C606        C  0.80993115  0.02558777  0.97886857    -0.17900
C607        C  0.85286132  0.02684301  0.97874710     0.10400
C608        C  0.87471002  0.99803348  0.49852805    -0.06700
C609        C  0.85323947  0.96811105  0.51515607    -0.17900
C610        C  0.81032051  0.96721246  0.51527651     0.10500
S611        S  0.87702040  0.06654080  0.95614114    -0.32900
S612        S  0.78603579  0.92904152  0.53915913    -0.32900
H613        H  0.75564160  0.95598219  0.55041045     0.28500
H614        H  0.90991972  0.07307178  0.97624524     0.28500
H615        H  0.79306032  0.04748074  0.96495779     0.19100
H616        H  0.87007628  0.94530833  0.52826140     0.19100
C617        C  0.00090875  0.46213977  0.75087796    -0.06800
C618        C  0.03065948  0.48341455  0.76769777    -0.17900
C619        C  0.03153235  0.52634830  0.76807160     0.10400
C620        C  0.00272280  0.54885816  0.75049798    -0.07700
C621        C  0.97323397  0.52752879  0.73347132    -0.17900
C622        C  0.97232372  0.48465604  0.73313924     0.10500
S623        S  0.06844083  0.55032929  0.79293244    -0.32900
S624        S  0.93540027  0.46071301  0.70827032    -0.32900
H625        H  0.96216380  0.42935075  0.69832198     0.28500
H626        H  0.04137711  0.58116025  0.80337835     0.28500
H627        H  0.05251913  0.46647369  0.78157016     0.19100
H628        H  0.95136661  0.54440458  0.71955878     0.19100
C629        C  0.99686695  0.88197512  0.74662720    -0.06800
C630        C  0.02165803  0.86137366  0.72505558    -0.17900
C631        C  0.02236301  0.81848401  0.72351114     0.10400
C632        C  0.99828987  0.79540302  0.74433319    -0.06700
C633        C  0.97256725  0.81595816  0.76525071    -0.17900
C634        C  0.97125569  0.85881349  0.76644179     0.10500
S635        S  0.05346219  0.79514220  0.69383175    -0.32900
S636        S  0.93528000  0.88180410  0.79307832    -0.32900
H637        H  0.92413001  0.91444221  0.77362393     0.28500
H638        H  0.02615287  0.76282450  0.68792694     0.28500
H639        H  0.04083399  0.87880442  0.70937696     0.19100
H640        H  0.95344979  0.79845490  0.78093676     0.19100
C641        C  0.00566786  0.54015102  0.00195447    -0.06800
C642        C  0.97665795  0.52057593  0.51898058    -0.17900
C643        C  0.97537840  0.47782901  0.52206668     0.10400
C644        C  0.00323545  0.45355080  0.00713436    -0.06700
C645        C  0.03567190  0.47299299  0.99162901    -0.17900
C646        C  0.03697992  0.51565039  0.98858032     0.10500
S647        S  0.93569659  0.45670155  0.54637173    -0.32900
S648        S  0.07744533  0.53644649  0.96505115    -0.32900
H649        H  0.04994155  0.56137354  0.94856109     0.28500
H650        H  0.96071998  0.42562657  0.55891300     0.28500
H651        H  0.95336057  0.53893199  0.53045719     0.19100
H652        H  0.05936240  0.45470361  0.98053907     0.19100
C653        C  0.00188030  0.67254961  0.83983164    -0.06800
C654        C  0.03903634  0.66251457  0.85441873    -0.17900
C655        C  0.04161603  0.65810304  0.88634992     0.10400
C656        C  0.00598549  0.66362704  0.90486346    -0.06700
C657        C  0.96889264  0.67395593  0.89021832    -0.17900
C658        C  0.96658897  0.67930961  0.85835789     0.10500
S659        S  0.09147458  0.64498229  0.90131449    -0.32900
S660        S  0.91810965  0.69706679  0.84342679    -0.32900
H661        H  0.93599301  0.72742075  0.82464019     0.28500
H662        H  0.07653645  0.61262183  0.91932982     0.28500
H663        H  0.06650881  0.65718612  0.84079071     0.19100
H664        H  0.94142829  0.67954651  0.90379221     0.19100
C665        C  0.00456159  0.66927531  0.59000505    -0.06800
C666        C  0.02698735  0.63990862  0.60656958    -0.17900
C667        C  0.02537945  0.63868219  0.63868101     0.10400
C668        C  0.00166233  0.66811101  0.65476831    -0.06700
C669        C  0.97934298  0.69762939  0.63822511    -0.17900
C670        C  0.98098049  0.69886473  0.60606494     0.10500
S671        S  0.05253848  0.59759834  0.65772564    -0.32900
S672        S  0.95423843  0.74016302  0.58694718    -0.32900
H673        H  0.98341821  0.74497313  0.56326468     0.28500
H674        H  0.02303228  0.59202736  0.68108986     0.28500
H675        H  0.04479326  0.61688257  0.59435484     0.19100
H676        H  0.96167465  0.72072561  0.65047361     0.19100
C677        C  0.00425209  0.78677950  0.49463384    -0.06800
C678        C  0.02959008  0.80797470  0.51507836    -0.17900
C679        C  0.02804293  0.85071622  0.51719371     0.10400
C680        C  0.00116779  0.87321620  0.49805452    -0.06700
C681        C  0.97625206  0.85228580  0.97604324    -0.17900
C682        C  0.97706678  0.80937553  0.97447599     0.10500
S683        S  0.06262070  0.87505089  0.54354387    -0.32900
S684        S  0.94483346  0.78524393  0.94624917    -0.32900
H685        H  0.97294654  0.75378606  0.93891052     0.28500
H686        H  0.03060859  0.88731136  0.56341705     0.28500
H687        H  0.05010745  0.79104499  0.53006341     0.19100
H688        H  0.95584993  0.86928450  0.96101866     0.19100
C689        C  0.45675877  0.99389596  0.75161860    -0.06800
C690        C  0.47621635  0.02572046  0.73542818    -0.17900
C691        C  0.51902232  0.02696050  0.73207616     0.10400
C692        C  0.54331215  0.99557495  0.74535333    -0.06700
C693        C  0.52383283  0.96342164  0.76120692    -0.17900
C694        C  0.48109753  0.96254396  0.76488728     0.10500
S695        S  0.54163210  0.06745568  0.70915864    -0.32900
S696        S  0.45999328  0.92190699  0.78820002    -0.32900
H697        H  0.43080251  0.94707929  0.80305761     0.28500
H698        H  0.50577438  0.09119724  0.70554352     0.28500
H699        H  0.45761978  0.04927684  0.72466862     0.19100
H700        H  0.54215674  0.93951829  0.77186533     0.19100
C701        C  0.12317393  0.00457176  0.75284037    -0.06800
C702        C  0.14311318  0.97572206  0.77159971    -0.17900
C703        C  0.18600818  0.97285169  0.77219284     0.10400
C704        C  0.20971877  0.99906653  0.75326686    -0.06700
C705        C  0.18972654  0.02832052  0.73487722    -0.17900
C706        C  0.14690165  0.03155572  0.73460992     0.10500
S707        S  0.20841517  0.93617858  0.79836452    -0.32900
S708        S  0.12455565  0.07169173  0.71139171    -0.32900
H709        H  0.09272732  0.08109927  0.73226290     0.28500
H710        H  0.24106035  0.96151274  0.80727459     0.28500
H711        H  0.12511570  0.95512794  0.78582904     0.19100
H712        H  0.20764332  0.04893607  0.72060583     0.19100
C713        C  0.54109209  0.99877435  0.49312801    -0.06800
C714        C  0.52078114  0.03014501  0.50933984    -0.17900
C715        C  0.47805820  0.03031370  0.51287159     0.10400
C716        C  0.45453349  0.99889294  0.49924584    -0.06700
C717        C  0.47526643  0.96791774  0.98289585    -0.17900
C718        C  0.51801766  0.96773262  0.97945623     0.10500
S719        S  0.45599424  0.07007160  0.53663698    -0.32900
S720        S  0.54021151  0.92850007  0.95526689    -0.32900
H721        H  0.56985628  0.95436526  0.94187278     0.28500
H722        H  0.42769963  0.04403432  0.55141953     0.28500
H723        H  0.53845568  0.05389780  0.52048361     0.19100
H724        H  0.45757304  0.94425261  0.97165632     0.19100
C725        C  0.32823741  0.99400646  0.84495756    -0.06800
C726        C  0.35008606  0.96346591  0.86081223    -0.17900
C727        C  0.35060451  0.96226311  0.89294984     0.10400
C728        C  0.32924259  0.99260586  0.90999531    -0.06700
C729        C  0.30698949  0.02288531  0.89410421    -0.17900
C730        C  0.30551912  0.02341211  0.86195557     0.10500
S731        S  0.38154309  0.92308643  0.91077504    -0.32900
S732        S  0.27254403  0.06117019  0.84423050    -0.32900
H733        H  0.25871219  0.03506926  0.82079564     0.28500
H734        H  0.34700440  0.90204418  0.92218184     0.28500
H735        H  0.36763569  0.94076410  0.84806751     0.19100
H736        H  0.28973093  0.04579730  0.90685710     0.19100
C737        C  0.33620352  0.99767938  0.66002639    -0.06800
C738        C  0.31267386  0.02745887  0.64466975    -0.17900
C739        C  0.31014868  0.02813579  0.61256007     0.10400
C740        C  0.33264186  0.99909904  0.59506741    -0.06700
C741        C  0.35651656  0.96958259  0.61045658    -0.17900
C742        C  0.35895156  0.96885331  0.64255766     0.10500
S743        S  0.27560998  0.06508416  0.59560812    -0.32900
S744        S  0.39322889  0.93173889  0.65964245    -0.32900
H745        H  0.40711879  0.95807536  0.68293545     0.28500
H746        H  0.26033743  0.03807991  0.57327325     0.28500
H747        H  0.29476179  0.04943491  0.65784291     0.19100
H748        H  0.37432809  0.94748230  0.59732669     0.19100
C749        C  0.20768344  0.99546002  0.50451116    -0.06800
C750        C  0.18812798  0.01930545  0.98177709    -0.17900
C751        C  0.14531488  0.02069309  0.98022566     0.10400
C752        C  0.12110007  0.99743781  0.50223185    -0.06700
C753        C  0.14147257  0.97125740  0.52287180    -0.17900
C754        C  0.18440302  0.97013982  0.52435680     0.10500
S755        S  0.12300671  0.05393447  0.95158337    -0.32900
S756        S  0.20737337  0.93695783  0.55276208    -0.32900
H757        H  0.23956826  0.96373571  0.56014157     0.28500
H758        H  0.09195067  0.06906984  0.97116822     0.28500
H759        H  0.20600641  0.03690355  0.96534318     0.19100
H760        H  0.12380345  0.95154760  0.53800131     0.19100
loop_ 
_geom_bond_atom_site_label_1 
_geom_bond_atom_site_label_2 
_geom_bond_distance 
_geom_bond_site_symmetry_2 
_ccdc_geom_bond_type 
O1           Ni9   1.912       .  S
O1           C11   1.281       .  A
O2         Ni389   1.913       .  S
O2           C12   1.279       .  A
O3           Ni9   1.917       .  S
O3           C13   1.282       .  A
O4         Ni389   1.919       .  S
O4          C394   1.281       .  A
O5         Ni390   1.911       .  S
O5           C14   1.280   1_545  A
O6          Ni10   1.913       .  S
O6          C393   1.280   1_545  A
O7          Ni10   1.919       .  S
O7           C12   1.282   1_545  A
O8         Ni390   1.921       .  S
O8           C11   1.282   1_545  A
Ni9         O382   1.914   1_554  S
Ni9         O384   1.918       .  S
Ni9        Ni390   2.388   1_565  S
Ni10        O385   1.910       .  S
Ni10        O388   1.921       .  S
Ni10       Ni389   2.388   1_545  S
C11         C360   1.481   1_565  S
C12         C348   1.481       .  S
C13         O386   1.280   1_565  A
C13         C336   1.479   1_554  S
C14         O384   1.281       .  A
C14         C369   1.471       .  S
O15         Ni23   1.917       .  S
O15          C25   1.281       .  A
O16         Ni23   1.916       .  S
O16          C26   1.281       .  A
O17         Ni23   1.918       .  S
O17          C27   1.281       .  A
O18         Ni23   1.917       .  S
O18          C28   1.281       .  A
O19         Ni24   1.914       .  S
O19          C28   1.281   1_545  A
O20         Ni24   1.912       .  S
O20          C27   1.280   1_545  A
O21         Ni24   1.915       .  S
O21          C26   1.281   1_545  A
O22         Ni24   1.915       .  S
O22          C25   1.281   1_545  A
Ni23        Ni24   2.388   1_565  S
C25         C357   1.479       .  S
C26         C345   1.478       .  S
C27         C324   1.477       .  S
C28         C309   1.481       .  S
O29         Ni37   1.915   1_554  S
O29          C39   1.280       .  A
O30        Ni417   1.919       .  S
O30          C40   1.280       .  A
O31         Ni37   1.917       .  S
O31          C41   1.282       .  A
O32        Ni417   1.920       .  S
O32          C42   1.282       .  A
O33        Ni418   1.917   1_554  S
O33         C422   1.281   1_655  A
O34         Ni38   1.913       .  S
O34         C421   1.280   1_655  A
O35         Ni38   1.915       .  S
O35          C40   1.283   1_655  A
O36        Ni418   1.918   1_554  S
O36          C39   1.281   1_655  A
Ni37        O410   1.918       .  S
Ni37        O412   1.919       .  S
Ni37       Ni418   2.386   1_455  S
Ni38        O413   1.917       .  S
Ni38        O416   1.916       .  S
Ni38       Ni417   2.386   1_655  S
C39         C285   1.473       .  S
C40         C276   1.491       .  S
C41         O414   1.280   1_455  A
C41         C297   1.474       .  S
C42         O413   1.281   1_455  A
C42         C261   1.484       .  S
O43         Ni51   1.914       .  S
O43          C53   1.280       .  A
O44         Ni51   1.913       .  S
O44          C54   1.281       .  A
O45         Ni51   1.921       .  S
O45          C55   1.282       .  A
O46         Ni51   1.923       .  S
O46          C56   1.282       .  A
O47         Ni52   1.912       .  S
O47          C56   1.280   1_655  A
O48         Ni52   1.912       .  S
O48          C55   1.280   1_655  A
O49         Ni52   1.917       .  S
O49          C54   1.281   1_655  A
O50         Ni52   1.919       .  S
O50          C53   1.281   1_655  A
Ni51        Ni52   2.387   1_455  S
C53         C288   1.473       .  S
C54         C273   1.489       .  S
C55         C240   1.476       .  S
C56         C252   1.476       .  S
O57         Ni65   1.917   1_554  S
O57          C67   1.281   1_545  A
O58        Ni445   1.915       .  S
O58          C68   1.281   1_545  A
O59         Ni65   1.916       .  S
O59          C69   1.281   1_545  A
O60        Ni445   1.916       .  S
O60         C450   1.281   1_545  A
O61        Ni446   1.912       .  S
O61          C70   1.280       .  A
O62         Ni66   1.915       .  S
O62         C449   1.281       .  A
O63         Ni66   1.917       .  S
O63          C68   1.281       .  A
O64        Ni446   1.918   1_554  S
O64          C67   1.282       .  A
Ni65        O438   1.914       .  S
Ni65        O440   1.915       .  S
Ni65       Ni446   2.388   1_545  S
Ni66        O441   1.913       .  S
Ni66        O444   1.917       .  S
Ni66       Ni445   2.388   1_565  S
C67         C213   1.482       .  S
C68         C201   1.478       .  S
C69         O442   1.281       .  A
C69         C333   1.479       .  S
C70         O440   1.281   1_565  A
C70         C225   1.475       .  S
O71         Ni79   1.920       .  S
O71          C81   1.282   1_545  A
O72         Ni79   1.914       .  S
O72          C82   1.281   1_545  A
O73         Ni79   1.913       .  S
O73          C83   1.280   1_545  A
O74         Ni79   1.911       .  S
O74          C84   1.280   1_545  A
O75         Ni80   1.919       .  S
O75          C84   1.282       .  A
O76         Ni80   1.917       .  S
O76          C83   1.281       .  A
O77         Ni80   1.917       .  S
O77          C82   1.281       .  A
O78         Ni80   1.915       .  S
O78          C81   1.281       .  A
Ni79        Ni80   2.388   1_545  S
C81         C216   1.483       .  S
C82         C204   1.478       .  S
C83         C189   1.471   1_565  S
C84         C312   1.482       .  S
O85         Ni93   1.913       .  S
O85         C475   1.280       .  A
O86         Ni93   1.916   1_455  S
O86         C476   1.281       .  A
O87         Ni93   1.919       .  S
O87         C477   1.282       .  A
O88         Ni93   1.915   1_545  S
O88         C478   1.282       .  A
O89         Ni94   1.916   1_545  S
O89          C98   1.281       .  A
O90         Ni94   1.912       .  S
O90          C97   1.279   1_554  A
O91         Ni94   1.915   1_455  S
O91          C96   1.281       .  A
O92         Ni94   1.914       .  S
O92          C95   1.281   1_554  A
Ni93       Ni474   2.389       .  S
Ni94       Ni473   2.389   1_554  S
C95         O465   1.280       .  A
C95         C228   1.470       .  S
C96         O466   1.281   1_554  A
C96         C372   1.477       .  S
C97         O467   1.282       .  A
C97         C300   1.476   1_655  S
C98         O468   1.282   1_554  A
C98         C177   1.479       .  S
O99        Ni107   1.912   1_655  S
O99         C109   1.280       .  A
O100       Ni107   1.911       .  S
O100        C110   1.280       .  A
O101       Ni107   1.919   1_565  S
O101        C111   1.282   1_455  A
O102       Ni107   1.917       .  S
O102        C112   1.282   1_455  A
O103       Ni108   1.918       .  S
O103        C112   1.280       .  A
O104       Ni108   1.915   1_565  S
O104        C111   1.281       .  A
O105       Ni108   1.918   1_455  S
O105        C110   1.281       .  A
O106       Ni108   1.916       .  S
O106        C109   1.281       .  A
Ni107      Ni108   2.388   1_455  S
C109        C192   1.475       .  S
C110        C321   1.472       .  S
C111        C249   1.479       .  S
C112        C165   1.486       .  S
O113       Ni121   1.914       .  S
O113        C123   1.280       .  A
O114       Ni501   1.914       .  S
O114        C124   1.282   1_655  A
O115       Ni121   1.921       .  S
O115        C125   1.282       .  A
O116       Ni501   1.919       .  S
O116        C506   1.282   1_655  A
O117       Ni502   1.913       .  S
O117        C126   1.281       .  A
O118       Ni122   1.915       .  S
O118        C505   1.280   1_455  A
O119       Ni122   1.917       .  S
O119        C124   1.280       .  A
O120       Ni502   1.915       .  S
O120        C123   1.282   1_455  A
Ni121       O494   1.917   1_554  S
Ni121       O496   1.918       .  S
Ni121      Ni502   2.386   1_655  S
Ni122       O497   1.914       .  S
Ni122       O500   1.916       .  S
Ni122      Ni501   2.387   1_455  S
C123        C153   1.479       .  S
C124        C141   1.488       .  S
C125        O498   1.280   1_655  A
C125        C180   1.476       .  S
C126        O496   1.281   1_455  A
C126        C644   1.480       .  S
O127       Ni135   1.911       .  S
O127        C137   1.280   1_455  A
O128       Ni135   1.914       .  S
O128        C138   1.281   1_455  A
O129       Ni135   1.917       .  S
O129        C139   1.281   1_455  A
O130       Ni135   1.916       .  S
O130        C140   1.280   1_455  A
O131       Ni136   1.918       .  S
O131        C140   1.281       .  A
O132       Ni136   1.918       .  S
O132        C139   1.280       .  A
O133       Ni136   1.916       .  S
O133        C138   1.281       .  A
O134       Ni136   1.918       .  S
O134        C137   1.282       .  A
Ni135      Ni136   2.388   1_455  S
C137        C156   1.479       .  S
C138        C144   1.485       .  S
C139        C168   1.471       .  S
C140        C237   1.477       .  S
C141        C142   1.406   1_455  A
C141        C146   1.417       .  A
C142        C143   1.398       .  A
C142        H151   1.084       .  S
C143        C144   1.415       .  A
C143        S147   1.803       .  S
C144        C145   1.406   1_655  A
C145        C146   1.399       .  A
C145        H152   1.084       .  S
C146        S148   1.800       .  S
S147        H150   1.408       .  S
S148        H149   1.408       .  S
C153        C154   1.403   1_655  A
C153        C158   1.415       .  A
C154        C155   1.396       .  A
C154        H163   1.084       .  S
C155        C156   1.414   1_455  A
C155        S159   1.804       .  S
C156        C157   1.405       .  A
C157        C158   1.400       .  A
C157        H164   1.084       .  S
C158        S160   1.803       .  S
S159        H162   1.408       .  S
S160        H161   1.407       .  S
C165        C166   1.407   1_655  A
C165        C170   1.418       .  A
C166        C167   1.398       .  A
C166        H175   1.084       .  S
C167        C168   1.410   1_455  A
C167        S171   1.803       .  S
C168        C169   1.400       .  A
C169        C170   1.401       .  A
C169        H176   1.084       .  S
C170        S172   1.799       .  S
S171        H174   1.406       .  S
S172        H173   1.408       .  S
C177        C182   1.417       .  A
C177        C558   1.404   1_654  A
C178        C179   1.398       .  A
C178        C557   1.406   1_455  A
C178        H187   1.084       .  S
C179        C560   1.410   1_455  A
C179        S183   1.800       .  S
C180        C181   1.402       .  A
C180        C559   1.411   1_654  A
C181        C182   1.401       .  A
C181        H188   1.084       .  S
C182        S184   1.804       .  S
S183        H186   1.404       .  S
S184        H185   1.405       .  S
C189        C190   1.401   1_545  A
C189        C194   1.413       .  A
C190        C191   1.397       .  A
C190        H199   1.083       .  S
C191        C192   1.415   1_565  A
C191        S195   1.803       .  S
C192        C193   1.404       .  A
C193        C194   1.399       .  A
C193        H200   1.084       .  S
C194        S196   1.804       .  S
S195        H198   1.406       .  S
S196        H197   1.406       .  S
C201        C202   1.403   1_565  A
C201        C206   1.414       .  A
C202        C203   1.397       .  A
C202        H211   1.084       .  S
C203        C204   1.414   1_545  A
C203        S207   1.803       .  S
C204        C205   1.405       .  A
C205        C206   1.400       .  A
C205        H212   1.084       .  S
C206        S208   1.803       .  S
S207        H210   1.408       .  S
S208        H209   1.407       .  S
C213        C214   1.404       .  A
C213        C218   1.415   1_565  A
C214        C215   1.398       .  A
C214        H223   1.083       .  S
C215        C216   1.415       .  A
C215        S219   1.803       .  S
C216        C217   1.405   1_565  A
C217        C218   1.401       .  A
C217        H224   1.084       .  S
C218        S220   1.803       .  S
S219        H222   1.406       .  S
S220        H221   1.407       .  S
C225        C230   1.414   1_556  A
C225        C606   1.404   1_565  A
C226        C227   1.398       .  A
C226        C605   1.404   1_545  A
C226        H235   1.084       .  S
C227        C608   1.412   1_545  A
C227        S231   1.804       .  S
C228        C229   1.401   1_556  A
C228        C607   1.413   1_565  A
C229        C230   1.397       .  A
C229        H236   1.084       .  S
C230        S232   1.802       .  S
S231        H234   1.405       .  S
S232        H233   1.406       .  S
C237        C238   1.403   1_655  A
C237        C242   1.412       .  A
C238        C239   1.400       .  A
C238        H247   1.084       .  S
C239        C240   1.413       .  A
C239        S243   1.804       .  S
C240        C241   1.404   1_455  A
C241        C242   1.403       .  A
C241        H248   1.083       .  S
C242        S244   1.808       .  S
S243        H246   1.407       .  S
S244        H245   1.407       .  S
C249        C250   1.405   1_655  A
C249        C254   1.415       .  A
C250        C251   1.401       .  A
C250        H259   1.084       .  S
C251        C252   1.413       .  A
C251        S255   1.803       .  S
C252        C253   1.403   1_455  A
C253        C254   1.398       .  A
C253        H260   1.084       .  S
C254        S256   1.804       .  S
S255        H258   1.407       .  S
S256        H257   1.406       .  S
C261        C266   1.415       .  A
C261        C642   1.406   1_455  A
C262        C263   1.401       .  A
C262        C641   1.406   1_655  A
C262        H271   1.084       .  S
C263        C644   1.414   1_655  A
C263        S267   1.803       .  S
C264        C506   1.480       .  S
C264        C265   1.403       .  A
C264        C643   1.414   1_455  A
C265        C266   1.398       .  A
C265        H272   1.084       .  S
C266        S268   1.798       .  S
S267        H270   1.408       .  S
S268        H269   1.405       .  S
C273        C274   1.406       .  A
C273        C278   1.416   1_455  A
C274        C275   1.399       .  A
C274        H283   1.084       .  S
C275        C276   1.419       .  A
C275        S279   1.801       .  S
C276        C277   1.407   1_455  A
C277        C278   1.398       .  A
C277        H284   1.084       .  S
C278        S280   1.802       .  S
S279        H282   1.400       .  S
S280        H281   1.408       .  S
C285        C286   1.402       .  A
C285        C290   1.413   1_455  A
C286        C287   1.399       .  A
C286        H295   1.084       .  S
C287        C288   1.413       .  A
C287        S291   1.804       .  S
C288        C289   1.403   1_455  A
C289        C290   1.400       .  A
C289        H296   1.084       .  S
C290        S292   1.804       .  S
S291        H294   1.407       .  S
S292        H293   1.406       .  S
C297        C298   1.402   1_556  A
C297        C682   1.415   1_455  A
C298        C299   1.397       .  A
C298        H307   1.084       .  S
C299        C300   1.412   1_554  A
C299        S303   1.799       .  S
C300        C681   1.403   1_455  A
C301        C302   1.400       .  A
C301        C680   1.404   1_655  A
C301        H308   1.084       .  S
C302        C677   1.414   1_655  A
C302        S304   1.804       .  S
S303        H306   1.407       .  S
S304        H305   1.407       .  S
C309        C310   1.404   1_565  A
C309        C314   1.414       .  A
C310        C311   1.401       .  A
C310        H319   1.083       .  S
C311        C312   1.414   1_545  A
C311        S315   1.809       .  S
C312        C313   1.405       .  A
C313        C314   1.400       .  A
C313        H320   1.084       .  S
C314        S316   1.803       .  S
S315        H318   1.407       .  S
S316        H317   1.408       .  S
C321        C322   1.402   1_545  A
C321        C326   1.412       .  A
C322        C323   1.399       .  A
C322        H331   1.084       .  S
C323        C324   1.415       .  A
C323        S327   1.803       .  S
C324        C325   1.404   1_565  A
C325        C326   1.398       .  A
C325        H332   1.084       .  S
C326        S328   1.804       .  S
S327        H330   1.407       .  S
S328        H329   1.407       .  S
C333        C334   1.404   1_566  A
C333        C718   1.415       .  A
C334        C335   1.399       .  A
C334        H343   1.084       .  S
C335        C336   1.415   1_544  A
C335        S339   1.803       .  S
C336        C717   1.404       .  A
C337        C338   1.399       .  A
C337        C716   1.404       .  A
C337        H344   1.084       .  S
C338        C713   1.414       .  A
C338        S340   1.803       .  S
S339        H342   1.408       .  S
S340        H341   1.408       .  S
C345        C346   1.403       .  A
C345        C350   1.415   1_565  A
C346        C347   1.398       .  A
C346        H355   1.084       .  S
C347        C348   1.415       .  A
C347        S351   1.799       .  S
C348        C349   1.404   1_565  A
C349        C350   1.399       .  A
C349        H356   1.084       .  S
C350        S352   1.804       .  S
S351        H354   1.408       .  S
S352        H353   1.407       .  S
C357        C358   1.404   1_565  A
C357        C362   1.414       .  A
C358        C359   1.400       .  A
C358        H367   1.084       .  S
C359        C360   1.415       .  A
C359        S363   1.803       .  S
C360        C361   1.405   1_545  A
C361        C362   1.398       .  A
C361        H368   1.084       .  S
C362        S364   1.804       .  S
S363        H366   1.407       .  S
S364        H365   1.408       .  S
C369        C374   1.412       .  A
C369        C750   1.401   1_564  A
C370        C371   1.397       .  A
C370        C749   1.403   1_545  A
C370        H379   1.084       .  S
C371        C752   1.412   1_545  A
C371        S375   1.804       .  S
C372        C373   1.405       .  A
C372        C751   1.414   1_564  A
C373        C374   1.400       .  A
C373        H380   1.084       .  S
C374        S376   1.804       .  S
S375        H378   1.407       .  S
S376        H377   1.406       .  S
O381       Ni389   1.912       .  S
O381        C391   1.280       .  A
O382        C392   1.280       .  A
O383       Ni389   1.918       .  S
O383        C393   1.282       .  A
O385        C394   1.280   1_545  A
O386       Ni390   1.913       .  S
O387       Ni390   1.918   1_556  S
O387        C392   1.282   1_545  A
O388        C391   1.282   1_545  A
C391        C740   1.480       .  S
C392        C728   1.481       .  S
C393        C716   1.479       .  S
C394        C749   1.474       .  S
O395       Ni403   1.918       .  S
O395        C405   1.282       .  A
O396       Ni403   1.916       .  S
O396        C406   1.281       .  A
O397       Ni403   1.919       .  S
O397        C407   1.281       .  A
O398       Ni403   1.918       .  S
O398        C408   1.281       .  A
O399       Ni404   1.913       .  S
O399        C408   1.281   1_545  A
O400       Ni404   1.911       .  S
O400        C407   1.280   1_545  A
O401       Ni404   1.916       .  S
O401        C406   1.281   1_545  A
O402       Ni404   1.915       .  S
O402        C405   1.281   1_545  A
Ni403      Ni404   2.388   1_565  S
C405        C737   1.478       .  S
C406        C725   1.478       .  S
C407        C704   1.475       .  S
C408        C689   1.481       .  S
O409       Ni417   1.916       .  S
O409        C419   1.280       .  A
O410        C420   1.280       .  A
O411       Ni417   1.917       .  S
O411        C421   1.282       .  A
O412        C422   1.282   1_556  A
O414       Ni418   1.913       .  S
O415       Ni418   1.917       .  S
O415        C420   1.283   1_655  A
O416        C419   1.281   1_655  A
C419        C665   1.472       .  S
C420        C656   1.492       .  S
C421        C677   1.474       .  S
C422        C641   1.485       .  S
O423       Ni431   1.912       .  S
O423        C433   1.280       .  A
O424       Ni431   1.915       .  S
O424        C434   1.282       .  A
O425       Ni431   1.918       .  S
O425        C435   1.281       .  A
O426       Ni431   1.919       .  S
O426        C436   1.281   1_455  A
O427       Ni432   1.914       .  S
O427        C436   1.280       .  A
O428       Ni432   1.913       .  S
O428        C435   1.281   1_655  A
O429       Ni432   1.917       .  S
O429        C434   1.281   1_655  A
O430       Ni432   1.919       .  S
O430        C433   1.281   1_655  A
Ni431      Ni432   2.387   1_455  S
C433        C668   1.472       .  S
C434        C653   1.489       .  S
C435        C620   1.478       .  S
C436        C632   1.474       .  S
O437       Ni445   1.917       .  S
O437        C447   1.281   1_545  A
O438        C448   1.281   1_545  A
O439       Ni445   1.915       .  S
O439        C449   1.281   1_545  A
O441        C450   1.280       .  A
O442       Ni446   1.915       .  S
O443       Ni446   1.917       .  S
O443        C448   1.281       .  A
O444        C447   1.282       .  A
C447        C593   1.481       .  S
C448        C581   1.477       .  S
C449        C713   1.479       .  S
C450        C605   1.478       .  S
O451       Ni459   1.920       .  S
O451        C461   1.282   1_545  A
O452       Ni459   1.913       .  S
O452        C462   1.281   1_545  A
O453       Ni459   1.913       .  S
O453        C463   1.280   1_545  A
O454       Ni459   1.911       .  S
O454        C464   1.280   1_545  A
O455       Ni460   1.918       .  S
O455        C464   1.282       .  A
O456       Ni460   1.917       .  S
O456        C463   1.281       .  A
O457       Ni460   1.917       .  S
O457        C462   1.281       .  A
O458       Ni460   1.915       .  S
O458        C461   1.281       .  A
Ni459      Ni460   2.388   1_545  S
C461        C596   1.482       .  S
C462        C584   1.478       .  S
C463        C569   1.471   1_565  S
C464        C692   1.482       .  S
O465       Ni473   1.913       .  S
O466       Ni473   1.914   1_455  S
O467       Ni473   1.920       .  S
O468       Ni473   1.917   1_545  S
O469       Ni474   1.917   1_545  S
O469        C478   1.281       .  A
O470       Ni474   1.912       .  S
O470        C477   1.280       .  A
O471       Ni474   1.913   1_455  S
O471        C476   1.280       .  A
O472       Ni474   1.915       .  S
O472        C475   1.281       .  A
C475        C608   1.470       .  S
C476        C752   1.474       .  S
C477        C680   1.476   1_655  S
C478        C557   1.484       .  S
O479       Ni487   1.912   1_655  S
O479        C489   1.280       .  A
O480       Ni487   1.912       .  S
O480        C490   1.280       .  A
O481       Ni487   1.919   1_565  S
O481        C491   1.282   1_455  A
O482       Ni487   1.919       .  S
O482        C492   1.283   1_455  A
O483       Ni488   1.916       .  S
O483        C492   1.280       .  A
O484       Ni488   1.914   1_565  S
O484        C491   1.280       .  A
O485       Ni488   1.918   1_455  S
O485        C490   1.281       .  A
O486       Ni488   1.916       .  S
O486        C489   1.281       .  A
Ni487      Ni488   2.388   1_455  S
C489        C572   1.474       .  S
C490        C701   1.474       .  S
C491        C629   1.477       .  S
C492        C545   1.486       .  S
O493       Ni501   1.912       .  S
O493        C503   1.280       .  A
O494        C504   1.283   1_655  A
O495       Ni501   1.920       .  S
O495        C505   1.281       .  A
O497        C506   1.281       .  A
O498       Ni502   1.915       .  S
O499       Ni502   1.915   1_556  S
O499        C504   1.280       .  A
O500        C503   1.282   1_455  A
C503        C533   1.478       .  S
C504        C521   1.487       .  S
C505        C560   1.472       .  S
O507       Ni515   1.910       .  S
O507        C517   1.280   1_455  A
O508       Ni515   1.915       .  S
O508        C518   1.282       .  A
O509       Ni515   1.917       .  S
O509        C519   1.281   1_455  A
O510       Ni515   1.915       .  S
O510        C520   1.281       .  A
O511       Ni516   1.917       .  S
O511        C520   1.281   1_655  A
O512       Ni516   1.918       .  S
O512        C519   1.281       .  A
O513       Ni516   1.916       .  S
O513        C518   1.281   1_655  A
O514       Ni516   1.917       .  S
O514        C517   1.281       .  A
Ni515      Ni516   2.388   1_455  S
C517        C536   1.477       .  S
C518        C524   1.485       .  S
C519        C548   1.472       .  S
C520        C617   1.478       .  S
C521        C522   1.406   1_455  A
C521        C526   1.417       .  A
C522        C523   1.399       .  A
C522        H531   1.084       .  S
C523        C524   1.415   1_655  A
C523        S527   1.803       .  S
C524        C525   1.405       .  A
C525        C526   1.399       .  A
C525        H532   1.084       .  S
C526        S528   1.799       .  S
S527        H530   1.408       .  S
S528        H529   1.408       .  S
C533        C534   1.403   1_655  A
C533        C538   1.415       .  A
C534        C535   1.396       .  A
C534        H543   1.084       .  S
C535        C536   1.414   1_455  A
C535        S539   1.804       .  S
C536        C537   1.404       .  A
C537        C538   1.399       .  A
C537        H544   1.084       .  S
C538        S540   1.803       .  S
S539        H542   1.408       .  S
S540        H541   1.405       .  S
C545        C546   1.406   1_655  A
C545        C550   1.418       .  A
C546        C547   1.399       .  A
C546        H555   1.084       .  S
C547        C548   1.411   1_455  A
C547        S551   1.803       .  S
C548        C549   1.400       .  A
C549        C550   1.401       .  A
C549        H556   1.084       .  S
C550        S552   1.799       .  S
S551        H554   1.406       .  S
S552        H553   1.408       .  S
C557        C562   1.418       .  A
C558        C559   1.398       .  A
C558        H567   1.084       .  S
C559        S563   1.798       .  S
C560        C561   1.400       .  A
C561        C562   1.400       .  A
C561        H568   1.083       .  S
C562        S564   1.803       .  S
S563        H566   1.406       .  S
S564        H565   1.407       .  S
C569        C570   1.401   1_545  A
C569        C574   1.413       .  A
C570        C571   1.398       .  A
C570        H579   1.083       .  S
C571        C572   1.415   1_565  A
C571        S575   1.804       .  S
C572        C573   1.403       .  A
C573        C574   1.398       .  A
C573        H580   1.084       .  S
C574        S576   1.803       .  S
S575        H578   1.405       .  S
S576        H577   1.406       .  S
C581        C582   1.403   1_565  A
C581        C586   1.414       .  A
C582        C583   1.397       .  A
C582        H591   1.084       .  S
C583        C584   1.414   1_545  A
C583        S587   1.803       .  S
C584        C585   1.405       .  A
C585        C586   1.400       .  A
C585        H592   1.084       .  S
C586        S588   1.803       .  S
S587        H590   1.408       .  S
S588        H589   1.407       .  S
C593        C594   1.403       .  A
C593        C598   1.415   1_565  A
C594        C595   1.398       .  A
C594        H603   1.083       .  S
C595        C596   1.415       .  A
C595        S599   1.803       .  S
C596        C597   1.405   1_565  A
C597        C598   1.401       .  A
C597        H604   1.084       .  S
C598        S600   1.803       .  S
S599        H602   1.406       .  S
S600        H601   1.407       .  S
C605        C610   1.416       .  A
C606        C607   1.398       .  A
C606        H615   1.084       .  S
C607        S611   1.805       .  S
C608        C609   1.400       .  A
C609        C610   1.398       .  A
C609        H616   1.084       .  S
C610        S612   1.802       .  S
S611        H614   1.404       .  S
S612        H613   1.406       .  S
C617        C618   1.404       .  A
C617        C622   1.414   1_455  A
C618        C619   1.400       .  A
C618        H627   1.084       .  S
C619        C620   1.415       .  A
C619        S623   1.803       .  S
C620        C621   1.404   1_455  A
C621        C622   1.398       .  A
C621        H628   1.084       .  S
C622        S624   1.803       .  S
S623        H626   1.407       .  S
S624        H625   1.407       .  S
C629        C630   1.404   1_655  A
C629        C634   1.415       .  A
C630        C631   1.400       .  A
C630        H639   1.084       .  S
C631        C632   1.413   1_455  A
C631        S635   1.803       .  S
C632        C633   1.402       .  A
C633        C634   1.398       .  A
C633        H640   1.084       .  S
C634        S636   1.804       .  S
S635        H638   1.407       .  S
S636        H637   1.406       .  S
C641        C646   1.415   1_554  A
C642        C643   1.400       .  A
C642        H651   1.084       .  S
C643        S647   1.803       .  S
C644        C645   1.403   1_554  A
C645        C646   1.397       .  A
C645        H652   1.084       .  S
C646        S648   1.798       .  S
S647        H650   1.408       .  S
S648        H649   1.405       .  S
C653        C654   1.406       .  A
C653        C658   1.416   1_455  A
C654        C655   1.399       .  A
C654        H663   1.084       .  S
C655        C656   1.419       .  A
C655        S659   1.801       .  S
C656        C657   1.407   1_455  A
C657        C658   1.399       .  A
C657        H664   1.084       .  S
C658        S660   1.802       .  S
S659        H662   1.400       .  S
S660        H661   1.408       .  S
C665        C666   1.402       .  A
C665        C670   1.413   1_455  A
C666        C667   1.398       .  A
C666        H675   1.084       .  S
C667        C668   1.412       .  A
C667        S671   1.804       .  S
C668        C669   1.403   1_455  A
C669        C670   1.400       .  A
C669        H676   1.084       .  S
C670        S672   1.804       .  S
S671        H674   1.407       .  S
S672        H673   1.406       .  S
C677        C678   1.402       .  A
C678        C679   1.397       .  A
C678        H687   1.084       .  S
C679        C680   1.413       .  A
C679        S683   1.799       .  S
C681        C682   1.401       .  A
C681        H688   1.084       .  S
C682        S684   1.804       .  S
S683        H686   1.407       .  S
S684        H685   1.407       .  S
C689        C690   1.404   1_565  A
C689        C694   1.414       .  A
C690        C691   1.401       .  A
C690        H699   1.083       .  S
C691        C692   1.414   1_545  A
C691        S695   1.809       .  S
C692        C693   1.405       .  A
C693        C694   1.400       .  A
C693        H700   1.084       .  S
C694        S696   1.803       .  S
S695        H698   1.407       .  S
S696        H697   1.408       .  S
C701        C702   1.403   1_545  A
C701        C706   1.413       .  A
C702        C703   1.399       .  A
C702        H711   1.084       .  S
C703        C704   1.414       .  A
C703        S707   1.803       .  S
C704        C705   1.403   1_565  A
C705        C706   1.398       .  A
C705        H712   1.084       .  S
C706        S708   1.804       .  S
S707        H710   1.406       .  S
S708        H709   1.407       .  S
C713        C714   1.404   1_565  A
C714        C715   1.398       .  A
C714        H723   1.084       .  S
C715        C716   1.415   1_545  A
C715        S719   1.803       .  S
C717        C718   1.399       .  A
C717        H724   1.084       .  S
C718        S720   1.803       .  S
S719        H722   1.408       .  S
S720        H721   1.408       .  S
C725        C726   1.403       .  A
C725        C730   1.415   1_565  A
C726        C727   1.399       .  A
C726        H735   1.084       .  S
C727        C728   1.415       .  A
C727        S731   1.799       .  S
C728        C729   1.404   1_565  A
C729        C730   1.400       .  A
C729        H736   1.084       .  S
C730        S732   1.804       .  S
S731        H734   1.407       .  S
S732        H733   1.407       .  S
C737        C738   1.404   1_565  A
C737        C742   1.414       .  A
C738        C739   1.400       .  A
C738        H747   1.084       .  S
C739        C740   1.414   1_545  A
C739        S743   1.803       .  S
C740        C741   1.405       .  A
C741        C742   1.399       .  A
C741        H748   1.084       .  S
C742        S744   1.804       .  S
S743        H746   1.407       .  S
S744        H745   1.407       .  S
C749        C754   1.413       .  A
C750        C751   1.396       .  A
C750        H759   1.084       .  S
C751        S755   1.803       .  S
C752        C753   1.404       .  A
C753        C754   1.400       .  A
C753        H760   1.084       .  S
C754        S756   1.803       .  S
S755        H758   1.406       .  S
S756        H757   1.406       .  S
