geometry optimzed in LAMMPS
_audit_creation_date              2020-12-01 
_audit_creation_method            'lammps2cif' 
_symmetry_space_group_name_H-M    'P1' 
_symmetry_Int_Tables_number       1 
_symmetry_cell_setting            triclinic 
loop_ 
_symmetry_equiv_pos_as_xyz 
  x,y,z 
_cell_length_a                    30.2134464 
_cell_length_b                    27.23308428361157 
_cell_length_c                    30.57262446432226 
_cell_angle_alpha                 90.1961096697614 
_cell_angle_beta                  88.76890565134558 
_cell_angle_gamma                 91.1628529982272 
loop_ 
_atom_site_label 
_atom_site_type_symbol 
_atom_site_fract_x 
_atom_site_fract_y 
_atom_site_fract_z 
_atom_site_charge 
C1          C  0.65175512  0.11441985  0.19547062     0.86500
C2          C  0.68361921  0.15837798  0.20177082    -0.53800
C3          C  0.70475749  0.15922843  0.24099385     0.09400
C4          C  0.69111395  0.11565453  0.27066526     0.20300
C5          C  0.68135292  0.06986593  0.20312414    -0.54500
C6          C  0.70287398  0.07083847  0.24229932     0.09500
C7          C  0.62020188  0.11432608  0.23517829    -0.54000
C8          C  0.64023421  0.11582239  0.27444475     0.10000
H9          H  0.68985066  0.18467841  0.17585677     0.14600
H10         H  0.70572220  0.11628984  0.30320106     0.00300
H11         H  0.68617947  0.04134817  0.17931440     0.14900
H12         H  0.58441048  0.11320807  0.23237199     0.14700
C13         C  0.79185587  0.24191025  0.29869797     0.86500
C14         C  0.75945906  0.03577366  0.29296879    -0.53800
C15         C  0.73744708  0.03498762  0.25409323     0.09400
C16         C  0.75165387  0.24139772  0.22394538     0.20300
C17         C  0.76177698  0.19621950  0.29110550    -0.54500
C18         C  0.73978184  0.19635142  0.25233516     0.09500
C19         C  0.82300304  0.24273683  0.25859090    -0.54000
C20         C  0.80236010  0.24314383  0.21964825     0.10000
H21         H  0.75444212  0.06293398  0.31836941     0.14600
H22         H  0.73695061  0.24084127  0.19144062     0.00300
H23         H  0.75745417  0.16703042  0.31415483     0.14900
H24         H  0.85883588  0.24238599  0.26078618     0.14700
C25         C  0.30166654  0.10163986  0.21424613     0.86500
C26         C  0.27424360  0.05375077  0.21851630    -0.53800
C27         C  0.24402519  0.05271973  0.25234415     0.09400
C28         C  0.24611062  0.09939809  0.28169441     0.20300
C29         C  0.26817540  0.14313076  0.21515543    -0.54500
C30         C  0.23917448  0.14259851  0.25002933     0.09500
C31         C  0.32415822  0.10545134  0.25860345    -0.54000
C32         C  0.29558009  0.10473263  0.29384019     0.10000
H33         H  0.27640502  0.02370864  0.19520683     0.14600
H34         H  0.22251788  0.09851320  0.31005204     0.00300
H35         H  0.26678680  0.17033425  0.18931621     0.14900
H36         H  0.35970771  0.10765050  0.26272038     0.14700
C37         C  0.14603094  0.22272584  0.21121488     0.86500
C38         C  0.18019060  0.01735278  0.21358899    -0.53800
C39         C  0.20591380  0.01729165  0.24978421     0.09400
C40         C  0.19576401  0.22243837  0.28066395     0.20300
C41         C  0.17394460  0.17652963  0.21578843    -0.54500
C42         C  0.20120465  0.17671593  0.25069219     0.09500
C43         C  0.11977830  0.22385169  0.25466391    -0.54000
C44         C  0.14528729  0.22365271  0.29106358     0.10000
H45         H  0.18332431  0.04565877  0.18872196     0.14600
H46         H  0.21680413  0.22194783  0.30985913     0.00300
H47         H  0.17334509  0.14567499  0.19340056     0.14900
H48         H  0.08383316  0.22366169  0.25672451     0.14700
O49         O  0.01435692  0.02562498  0.04933301    -0.71800
O50         O  0.93233480  0.02813820  0.45751402    -0.72000
O51         O  0.92620450  0.02842965  0.04749718    -0.71900
O52         O  0.02148514  0.02290857  0.45925608    -0.71900
O53         O  0.01289179  0.19527848  0.45901984    -0.71900
O54         O  0.92658610  0.19766818  0.04771714    -0.71900
O55         O  0.92405355  0.19946291  0.46072741    -0.71800
O56         O  0.01452699  0.19378918  0.04482944    -0.72000
V57         V  0.97261814  0.02564802  0.00407509     1.35200
V58         V  0.96980880  0.19746870  0.00221957     1.35200
C59         C  0.02863709  0.23302191  0.06245744     0.77400
C60         C  0.91187941  0.24010520  0.44558727     0.77500
C61         C  0.91282189  0.23783065  0.06287198     0.77400
C62         C  0.03199729  0.23394127  0.44491384     0.77300
O63         O  0.51433296  0.08213462  0.44373343    -0.71800
O64         O  0.42920510  0.07780972  0.03987926    -0.72000
O65         O  0.42494853  0.07784948  0.45166370    -0.71900
O66         O  0.51783312  0.07914583  0.03244562    -0.71900
O67         O  0.52024168  0.15890195  0.03259130    -0.71900
O68         O  0.42217577  0.15688555  0.45890338    -0.71900
O69         O  0.43267840  0.15744760  0.04469761    -0.71800
O70         O  0.51039681  0.16159049  0.44635612    -0.72000
V71         V  0.47303930  0.07836004  0.49126704     1.35200
V72         V  0.47143395  0.15817276  0.99494191     1.35200
C73         C  0.52625320  0.12357001  0.42863447     0.77400
C74         C  0.41799711  0.11679020  0.05929360     0.77500
C75         C  0.40694882  0.11795076  0.44199254     0.77400
C76         C  0.53507129  0.11885691  0.04621288     0.77300
C77         C  0.12741817  0.26242995  0.36328116    -0.12300
C78         C  0.12391789  0.22166981  0.33524206     0.04700
C79         C  0.09345284  0.18327298  0.34591549    -0.07600
C80         C  0.06497638  0.18834883  0.38236579    -0.08300
C81         C  0.06651175  0.23018721  0.40942870    -0.02900
C82         C  0.09963278  0.26679015  0.40081915     0.03900
N83         N  0.10625443  0.30762625  0.43003328     0.66400
H84         H  0.15119351  0.29152432  0.35527313     0.15300
H85         H  0.04075209  0.15935905  0.38920704     0.15000
N86         N  0.09042907  0.13937630  0.31958759     0.74100
O87         O  0.10627420  0.30071350  0.47084921    -0.39300
O88         O  0.11936601  0.34872676  0.41519805    -0.39300
O89         O  0.12486170  0.12099575  0.30276927    -0.40000
O90         O  0.05048240  0.86836489  0.31082182    -0.40000
C91         C  0.08244914  0.25914164  0.17099512    -0.12300
C92         C  0.11767575  0.22594111  0.17022060     0.04700
C93         C  0.12601447  0.19956669  0.13052267    -0.07600
C94         C  0.09502423  0.20051058  0.09705393    -0.08300
C95         C  0.05895686  0.23160034  0.09940207    -0.02900
C96         C  0.05346619  0.26235555  0.13610789     0.03900
N97         N  0.01783478  0.29606123  0.13900234     0.66400
H98         H  0.07704164  0.28267460  0.19916716     0.15300
H99         H  0.10084270  0.17946155  0.06739432     0.15000
N100        N  0.16739737  0.17654350  0.12092450     0.74100
O101        O  0.97970496  0.28116844  0.15108054    -0.39300
O102        O  0.02554415  0.34146993  0.13431512    -0.39300
O103        O  0.16812366  0.13755738  0.09846199    -0.40000
O104        O  0.20173209  0.94833279  0.12124238    -0.40000
C105        C  0.34377010  0.07689177  0.40405968    -0.12300
C106        C  0.37023240  0.11936900  0.41034225     0.04700
C107        C  0.36421931  0.16035660  0.38271958    -0.07600
C108        C  0.33681395  0.15530956  0.34654766    -0.08300
C109        C  0.31345655  0.11144938  0.33819930    -0.02900
C110        C  0.31531544  0.07258079  0.36837570     0.03900
N111        N  0.29156608  0.02723520  0.36148738     0.66400
H112        H  0.34704485  0.04575148  0.42562812     0.15300
H113        H  0.33515003  0.18529559  0.32345365     0.15000
N114        N  0.38701083  0.20647530  0.38935574     0.74100
O115        O  0.29588624  0.00456254  0.32565777    -0.39300
O116        O  0.27115152  0.00654873  0.39305745    -0.38100
O117        O  0.40454232  0.22885425  0.35708349    -0.40000
O118        O  0.38058174  0.22981849  0.42456727    -0.40000
C119        C  0.37327235  0.12989037  0.17522994    -0.12300
C120        C  0.33187978  0.10497438  0.17313876     0.04700
C121        C  0.31824164  0.08737838  0.13134826    -0.07600
C122        C  0.34750679  0.09062602  0.09519779    -0.08300
C123        C  0.38859006  0.11455294  0.09819938    -0.02900
C124        C  0.40136330  0.13485597  0.13840518     0.03900
N125        N  0.44357647  0.15894350  0.14280333     0.66400
H126        H  0.38387791  0.14728809  0.20512636     0.15300
H127        H  0.33730762  0.07611893  0.06383211     0.15000
N128        N  0.27464395  0.06748097  0.12415244     0.74100
O129        O  0.45008493  0.20145194  0.12734748    -0.39300
O130        O  0.47211380  0.14068181  0.16715119    -0.39300
O131        O  0.24109170  0.09167459  0.13531598    -0.40000
O132        O  0.26964375  0.02984797  0.10039441    -0.40000
C133        C  0.81462683  0.20783323  0.37336270    -0.12300
C134        C  0.81826996  0.24483640  0.34111861     0.04700
C135        C  0.85007111  0.28329772  0.34734159    -0.07600
C136        C  0.87918549  0.28143719  0.38224336    -0.08300
C137        C  0.87741192  0.24250156  0.41209388    -0.02900
C138        C  0.84368578  0.20624127  0.40848476     0.03900
N139        N  0.83764775  0.16816908  0.44062417     0.66400
H140        H  0.78932046  0.17980603  0.37248855     0.15300
H141        H  0.90431923  0.31012320  0.38517712     0.15000
N142        N  0.85514811  0.32328107  0.31716626     0.74100
O143        O  0.83636803  0.93287851  0.48244457    -0.39300
O144        O  0.82802568  0.12484330  0.42885133    -0.39300
O145        O  0.83004604  0.10690035  0.31545387    -0.40000
O146        O  0.89124574  0.32907607  0.29608935    -0.40000
C147        C  0.84834469  0.02435345  0.10737997    -0.12300
C148        C  0.88210521  0.23780064  0.10126402     0.04700
C149        C  0.88612880  0.20251018  0.13461876    -0.07600
C150        C  0.85914919  0.20469622  0.17214218    -0.08300
C151        C  0.82774774  0.24149931  0.17759845    -0.02900
C152        C  0.82079712  0.02602959  0.14505242     0.03900
N153        N  0.79043708  0.06556260  0.15021343     0.66400
H154        H  0.84545841  0.05221210  0.08243685     0.15300
H155        H  0.86323896  0.17769224  0.19765077     0.15000
N156        N  0.91932621  0.16585473  0.13211925     0.74100
O157        O  0.79132451  0.09209292  0.18412353    -0.39300
O158        O  0.76760918  0.07863614  0.11833334    -0.39300
O159        O  0.95601045  0.17333196  0.15020058    -0.40000
O160        O  0.90967515  0.12362245  0.11767367    -0.40000
C161        C  0.57866347  0.15279803  0.31766228    -0.12300
C162        C  0.61394914  0.11989031  0.31602666     0.04700
C163        C  0.62207555  0.09096176  0.35316552    -0.07600
C164        C  0.59433905  0.09504095  0.39041501    -0.08300
C165        C  0.55810467  0.12660889  0.39127769    -0.02900
C166        C  0.55070036  0.15637937  0.35461151     0.03900
N167        N  0.51315923  0.18756985  0.35285892     0.66400
H168        H  0.57236606  0.17570148  0.28964970     0.15300
H169        H  0.59995126  0.07170493  0.41830168     0.15000
N170        N  0.65582275  0.05467715  0.35262062     0.74100
O171        O  0.51049716  0.22422897  0.37806469    -0.39300
O172        O  0.48730697  0.18392493  0.32106491    -0.39300
O173        O  0.68006337  0.04983270  0.38538977    -0.40000
O174        O  0.65643687  0.02232752  0.32297082    -0.40000
C175        C  0.62784646  0.08070144  0.12030535    -0.12300
C176        C  0.62580080  0.11751045  0.15294023     0.04700
C177        C  0.59636963  0.15686659  0.14675467    -0.07600
C178        C  0.56918484  0.15727921  0.11048372    -0.08300
C179        C  0.56960617  0.11920286  0.07966966    -0.02900
C180        C  0.60008758  0.08101403  0.08396644     0.03900
N181        N  0.60389982  0.04285652  0.05155309     0.66400
H182        H  0.65074846  0.05111238  0.12218066     0.15300
H183        H  0.54592607  0.18683683  0.10758743     0.15000
N184        N  0.59120780  0.19523532  0.17853666     0.74100
O185        O  0.60417054  0.05336756  0.01135347    -0.39300
O186        O  0.61232909  0.99955782  0.06287454    -0.39300
O187        O  0.61732182  0.23190166  0.17739887    -0.40000
O188        O  0.55497249  0.19851041  0.19955807    -0.40000
C189        C  0.65150387  0.11292363  0.69652753     0.86500
C190        C  0.68222306  0.15773081  0.70332267    -0.53800
C191        C  0.70365499  0.15851850  0.74240530     0.09400
C192        C  0.69139459  0.11400973  0.77147512     0.20300
C193        C  0.68232565  0.06924360  0.70336354    -0.54500
C194        C  0.70396058  0.07008170  0.74241554     0.09500
C195        C  0.62012627  0.11135492  0.73649077    -0.54000
C196        C  0.64067761  0.11263065  0.77543335     0.10000
H197        H  0.68732121  0.18479552  0.67784770     0.14600
H198        H  0.70602036  0.11437533  0.80406882     0.00300
H199        H  0.68777840  0.04129044  0.67919530     0.14900
H200        H  0.58429416  0.10988283  0.73427490     0.14700
C201        C  0.79057760  0.24224725  0.79942653     0.86500
C202        C  0.76053490  0.03485127  0.79274089    -0.53800
C203        C  0.73891235  0.03457782  0.75369034     0.09400
C204        C  0.74980525  0.24095964  0.72496358     0.20300
C205        C  0.75998087  0.19676859  0.79266136    -0.54500
C206        C  0.73789340  0.19639714  0.75392977     0.09500
C207        C  0.82138482  0.24190200  0.75905633    -0.54000
C208        C  0.80041843  0.24207204  0.72031242     0.10000
H209        H  0.75484475  0.06126067  0.81863028     0.14600
H210        H  0.73494811  0.24017976  0.69254660     0.00300
H211        H  0.75569407  0.16778835  0.81613416     0.14900
H212        H  0.85723447  0.24112630  0.76091297     0.14700
C213        C  0.30278607  0.09789018  0.71410748     0.86500
C214        C  0.27344553  0.05150682  0.71797964    -0.53800
C215        C  0.24311974  0.05176543  0.75176792     0.09400
C216        C  0.24622877  0.09877776  0.78085918     0.20300
C217        C  0.27078566  0.14094141  0.71426321    -0.54500
C218        C  0.24113157  0.14183744  0.74864774     0.09500
C219        C  0.32446485  0.10074200  0.75882871    -0.54000
C220        C  0.29556980  0.10269740  0.79372400     0.10000
H221        H  0.27460582  0.02166045  0.69437276     0.14600
H222        H  0.22213528  0.09930508  0.80879445     0.00300
H223        H  0.27081926  0.16814371  0.68833023     0.14900
H224        H  0.35982011  0.10117664  0.76382166     0.14700
C225        C  0.14824317  0.22301658  0.70942398     0.86500
C226        C  0.17863733  0.01625345  0.71387509    -0.53800
C227        C  0.20460076  0.01680172  0.74991017     0.09400
C228        C  0.19732664  0.22169834  0.77936796     0.20300
C229        C  0.17721836  0.17745207  0.71301886    -0.54500
C230        C  0.20393830  0.17705718  0.74833056     0.09500
C231        C  0.12161884  0.22226110  0.75260267    -0.54000
C232        C  0.14669117  0.22152522  0.78926758     0.10000
H233        H  0.18229225  0.04359681  0.68815360     0.14600
H234        H  0.21801874  0.22088096  0.80883273     0.00300
H235        H  0.17723323  0.14693805  0.69033249     0.14900
H236        H  0.08565041  0.22186489  0.75419628     0.14700
O237        O  0.01573865  0.02365060  0.54788217    -0.71800
O238        O  0.93042473  0.02930765  0.95939730    -0.72000
O239        O  0.92772372  0.02744388  0.54563513    -0.71900
O240        O  0.01958783  0.02507749  0.96077870    -0.71900
O241        O  0.01325578  0.19350119  0.95693746    -0.71900
O242        O  0.92480087  0.19837515  0.54842894    -0.71900
O243        O  0.92443145  0.19864754  0.96003340    -0.71800
O244        O  0.01269255  0.19547628  0.54678381    -0.72000
V245        V  0.97431579  0.02408473  0.50237533     1.35200
V246        V  0.96869417  0.19874292  0.50358172     1.35200
C247        C  0.02704675  0.23482408  0.56400294     0.77400
C248        C  0.91289011  0.23938477  0.94453814     0.77500
C249        C  0.91119826  0.23838615  0.56404148     0.77400
C250        C  0.03298401  0.23190752  0.94308172     0.77300
O251        O  0.51246739  0.08234109  0.94504117    -0.71800
O252        O  0.43218980  0.07099241  0.53884466    -0.72000
O253        O  0.42287488  0.08131556  0.95248972    -0.71900
O254        O  0.52081674  0.07653092  0.53095731    -0.71900
O255        O  0.52049644  0.15624727  0.53317337    -0.71900
O256        O  0.42238490  0.16080685  0.95751196    -0.71900
O257        O  0.43307189  0.15048688  0.54599214    -0.71800
O258        O  0.51082883  0.16180284  0.94560717    -0.72000
V259        V  0.47058024  0.08162749  0.99239668     1.35200
V260        V  0.47148592  0.15474023  0.49592539     1.35200
C261        C  0.52619327  0.12288110  0.92916272     0.77400
C262        C  0.41981587  0.10870085  0.55940916     0.77500
C263        C  0.40633565  0.12169491  0.94153769     0.77400
C264        C  0.53672899  0.11651165  0.54573945     0.77300
C265        C  0.12946679  0.25878135  0.86230813    -0.12300
C266        C  0.12471632  0.21912302  0.83319612     0.04700
C267        C  0.09258948  0.18192198  0.84260082    -0.07600
C268        C  0.06406146  0.18712642  0.87903274    -0.08300
C269        C  0.06712383  0.22784644  0.90727883    -0.02900
C270        C  0.10148027  0.26320950  0.89966676     0.03900
N271        N  0.10902437  0.30292733  0.92976369     0.66400
H272        H  0.15432481  0.28707725  0.85528849     0.15300
H273        H  0.03868948  0.15912225  0.88501613     0.15000
N274        N  0.08799072  0.13912744  0.81505630     0.74100
O275        O  0.11088438  0.29442968  0.97024957    -0.39300
O276        O  0.12041075  0.34492566  0.91567674    -0.39300
O277        O  0.12167830  0.11983258  0.79757119    -0.40000
O278        O  0.05336447  0.86689835  0.81633329    -0.40000
C279        C  0.08604125  0.26267295  0.66983056    -0.12300
C280        C  0.11949356  0.22731644  0.66879060     0.04700
C281        C  0.12479318  0.19899644  0.62982993    -0.07600
C282        C  0.09242585  0.20019108  0.59782874    -0.08300
C283        C  0.05796075  0.23338212  0.60044645    -0.02900
C284        C  0.05549800  0.26622382  0.63618286     0.03900
N285        N  0.02157341  0.30224337  0.63965127     0.66400
H286        H  0.08292606  0.28712212  0.69772104     0.15300
H287        H  0.09619179  0.17772595  0.56868304     0.15000
N288        N  0.16508301  0.17476334  0.61863723     0.74100
O289        O  0.98138204  0.28958282  0.63617979    -0.39300
O290        O  0.03129014  0.34557391  0.65133701    -0.39300
O291        O  0.16370819  0.13466163  0.59778931    -0.40000
O292        O  0.20337471  0.95006256  0.62764861    -0.40000
C293        C  0.33643688  0.08784650  0.90923311    -0.12300
C294        C  0.37086286  0.12352670  0.90895446     0.04700
C295        C  0.37370926  0.15776069  0.87442836    -0.07600
C296        C  0.34493788  0.15307569  0.83953660    -0.08300
C297        C  0.31352631  0.11448748  0.83747285    -0.02900
C298        C  0.30761920  0.08324955  0.87376553     0.03900
N299        N  0.27538016  0.04421428  0.87339065     0.66400
H300        H  0.33331178  0.06198941  0.93601684     0.15300
H301        H  0.34961075  0.17761585  0.81189149     0.15000
N302        N  0.40907836  0.19348371  0.87128114     0.74100
O303        O  0.28244069  0.00628814  0.85075279    -0.39300
O304        O  0.24243830  0.04512295  0.89943612    -0.38100
O305        O  0.43488911  0.19333889  0.83827597    -0.40000
O306        O  0.40933456  0.23018651  0.89656701    -0.40000
C307        C  0.37837899  0.11558007  0.67663889    -0.12300
C308        C  0.33387990  0.09916483  0.67347215     0.04700
C309        C  0.31846580  0.08642068  0.63112812    -0.07600
C310        C  0.34739967  0.08820654  0.59467630    -0.08300
C311        C  0.39133016  0.10392491  0.59875745    -0.02900
C312        C  0.40715771  0.11691239  0.64013750     0.03900
N313        N  0.45297798  0.12923884  0.64591578     0.66400
H314        H  0.39172099  0.12817126  0.70715075     0.15300
H315        H  0.33502161  0.07882756  0.56262167     0.15000
N316        N  0.27324974  0.07284469  0.62400201     0.74100
O317        O  0.46390440  0.16560624  0.66928822    -0.39300
O318        O  0.48207378  0.09908135  0.63406727    -0.39300
O319        O  0.24393644  0.10491593  0.62744482    -0.40000
O320        O  0.26404072  0.03255414  0.60548800    -0.40000
C321        C  0.81307189  0.20962292  0.87471992    -0.12300
C322        C  0.81750416  0.24550442  0.84156415     0.04700
C323        C  0.85075607  0.28275217  0.84647272    -0.07600
C324        C  0.88054034  0.28032490  0.88079479    -0.08300
C325        C  0.87796399  0.24225294  0.91148234    -0.02900
C326        C  0.84275341  0.20753442  0.90934022     0.03900
N327        N  0.83585776  0.17069694  0.94249173     0.66400
H328        H  0.78644046  0.18283585  0.87488768     0.15300
H329        H  0.90677782  0.30795056  0.88269296     0.15000
N330        N  0.85669244  0.32181339  0.81543565     0.74100
O331        O  0.83605770  0.92942125  0.98094505    -0.39300
O332        O  0.82332484  0.12780838  0.93204302    -0.39300
O333        O  0.82890106  0.10836360  0.81899451    -0.40000
O334        O  0.89324853  0.32689521  0.79501945    -0.40000
C335        C  0.84991540  0.02396367  0.60588731    -0.12300
C336        C  0.88054143  0.23794466  0.60241330     0.04700
C337        C  0.88411153  0.20185050  0.63519323    -0.07600
C338        C  0.85636882  0.20309136  0.67224409    -0.08300
C339        C  0.82540507  0.24025893  0.67812545    -0.02900
C340        C  0.82265380  0.02623817  0.64379719     0.03900
N341        N  0.79179278  0.06539287  0.64838150     0.66400
H342        H  0.84668189  0.05128595  0.58053092     0.15300
H343        H  0.86012192  0.17568577  0.69747649     0.15000
N344        N  0.91789007  0.16575499  0.63293885     0.74100
O345        O  0.79159053  0.09183673  0.68236431    -0.39300
O346        O  0.76925786  0.07801352  0.61614337    -0.39300
O347        O  0.95778495  0.17850392  0.63840295    -0.40000
O348        O  0.90734126  0.12070536  0.63202794    -0.40000
C349        C  0.59112156  0.15879740  0.82514117    -0.12300
C350        C  0.61520037  0.11615656  0.81714190     0.04700
C351        C  0.61353268  0.07793147  0.84814493    -0.07600
C352        C  0.58529949  0.08202346  0.88506187    -0.08300
C353        C  0.55938485  0.12386888  0.89233806    -0.02900
C354        C  0.56434419  0.16388100  0.86288648     0.03900
N355        N  0.54291575  0.20980894  0.87040602     0.66400
H356        H  0.59372587  0.18879080  0.80192745     0.15300
H357        H  0.58282847  0.05158452  0.90778193     0.15000
N358        N  0.63891942  0.03425623  0.84214443     0.74100
O359        O  0.55135514  0.23410486  0.90455005    -0.39300
O360        O  0.52546567  0.23149017  0.83887990    -0.39300
O361        O  0.65662774  0.01451570  0.87453598    -0.40000
O362        O  0.64013224  0.01259161  0.80558908    -0.40000
C363        C  0.62970870  0.08027300  0.62029133    -0.12300
C364        C  0.62572747  0.11583744  0.65388258     0.04700
C365        C  0.59532944  0.15425967  0.64802291    -0.07600
C366        C  0.56886736  0.15473854  0.61121776    -0.08300
C367        C  0.57097958  0.11753118  0.57953915    -0.02900
C368        C  0.60267765  0.08059152  0.58342887     0.03900
N369        N  0.60865764  0.04397294  0.54994042     0.66400
H370        H  0.65380284  0.05184892  0.62161137     0.15300
H371        H  0.54471994  0.18344462  0.60861995     0.15000
N372        N  0.58890486  0.19180859  0.68036600     0.74100
O373        O  0.60902249  0.05604002  0.51009480    -0.39300
O374        O  0.61897774  0.00083715  0.56004288    -0.39300
O375        O  0.61303823  0.23011154  0.67910410    -0.40000
O376        O  0.55323459  0.19220478  0.70260226    -0.40000
C377        C  0.65139778  0.36309328  0.19653097     0.86500
C378        C  0.68211594  0.40789861  0.20331691    -0.53800
C379        C  0.70358042  0.40868091  0.24238091     0.09400
C380        C  0.69133432  0.36417129  0.27145965     0.20300
C381        C  0.68222618  0.31940763  0.20335065    -0.54500
C382        C  0.70388165  0.32024188  0.24239817     0.09500
C383        C  0.62004211  0.36150461  0.23651461    -0.54000
C384        C  0.64061756  0.36276266  0.27544434     0.10000
H385        H  0.68719511  0.43496379  0.17783963     0.14600
H386        H  0.70598310  0.36454328  0.30404379     0.00300
H387        H  0.68762473  0.29142409  0.17919481     0.14900
H388        H  0.58420853  0.35999963  0.23432242     0.14700
C389        C  0.79052960  0.49245679  0.29932673     0.86500
C390        C  0.76037168  0.28491031  0.29278012    -0.53800
C391        C  0.73877831  0.28468156  0.25370777     0.09400
C392        C  0.74975145  0.49109385  0.22486815     0.20300
C393        C  0.75994919  0.44695327  0.29258912    -0.54500
C394        C  0.73785125  0.44654798  0.25386239     0.09500
C395        C  0.82133135  0.49210124  0.25895704    -0.54000
C396        C  0.80036404  0.49224335  0.22021678     0.10000
H397        H  0.75469070  0.31131771  0.31867105     0.14600
H398        H  0.73489836  0.49027915  0.19245087     0.00300
H399        H  0.75566810  0.41798899  0.31608125     0.14900
H400        H  0.85718301  0.49136330  0.26080938     0.14700
C401        C  0.30283778  0.34788984  0.21413598     0.86500
C402        C  0.27351556  0.30150994  0.21809956    -0.53800
C403        C  0.24317290  0.30184946  0.25187648     0.09400
C404        C  0.24624701  0.34895716  0.28086004     0.20300
C405        C  0.27079261  0.39090158  0.21414694    -0.54500
C406        C  0.24114430  0.39191330  0.24853683     0.09500
C407        C  0.32448469  0.35091480  0.25886692    -0.54000
C408        C  0.29557956  0.35295261  0.29374358     0.10000
H409        H  0.27468909  0.27161961  0.19453974     0.14600
H410        H  0.22214118  0.34955665  0.30878262     0.00300
H411        H  0.27084010  0.41803533  0.18815841     0.14900
H412        H  0.35982625  0.35136111  0.26390618     0.14700
C413        C  0.14844419  0.47344603  0.20938984     0.86500
C414        C  0.17869580  0.26629604  0.21401531    -0.53800
C415        C  0.20465697  0.26687505  0.25005311     0.09400
C416        C  0.19751779  0.47187185  0.27933359     0.20300
C417        C  0.17733351  0.42779863  0.21291709    -0.54500
C418        C  0.20404561  0.42726606  0.24823255     0.09500
C419        C  0.12181893  0.47267681  0.25256500    -0.54000
C420        C  0.14688285  0.47180747  0.28923142     0.10000
H421        H  0.18229929  0.29367829  0.18831984     0.14600
H422        H  0.21821151  0.47095637  0.30879570     0.00300
H423        H  0.17729119  0.39732711  0.19018288     0.14900
H424        H  0.08585132  0.47237001  0.25415495     0.14700
O425        O  0.01567409  0.27353958  0.04811453    -0.71800
O426        O  0.93039224  0.27899562  0.45933540    -0.72000
O427        O  0.92767020  0.27736606  0.04576107    -0.71900
O428        O  0.01955908  0.27469765  0.46072436    -0.71900
O429        O  0.01329878  0.44376001  0.45674988    -0.71900
O430        O  0.92499750  0.44890552  0.04849097    -0.71900
O431        O  0.92446073  0.44885031  0.45983205    -0.71800
O432        O  0.01288685  0.44615083  0.04685252    -0.72000
V433        V  0.97429860  0.27397040  0.00254774     1.35200
V434        V  0.96888640  0.44931019  0.00365741     1.35200
C435        C  0.02721656  0.48552831  0.06403592     0.77400
C436        C  0.91289286  0.48959859  0.44437866     0.77500
C437        C  0.91134834  0.48889851  0.06409040     0.77400
C438        C  0.03300989  0.48218960  0.44292086     0.77300
O439        O  0.51246005  0.33229317  0.44518169    -0.71800
O440        O  0.43208382  0.32108402  0.03872262    -0.72000
O441        O  0.42287319  0.33137069  0.45257937    -0.71900
O442        O  0.52071494  0.32669130  0.03087588    -0.71900
O443        O  0.52028127  0.40639904  0.03322159    -0.71900
O444        O  0.42250366  0.41087599  0.45749044    -0.71900
O445        O  0.43282953  0.40057873  0.04585921    -0.71800
O446        O  0.51095420  0.41175903  0.44575314    -0.72000
V447        V  0.47055198  0.33166231  0.49252093     1.35200
V448        V  0.47134810  0.40489553  0.99586681     1.35200
C449        C  0.52624824  0.37280718  0.42929861     0.77400
C450        C  0.41963821  0.35876777  0.05927615     0.77500
C451        C  0.40641178  0.37176435  0.44155148     0.77400
C452        C  0.53656294  0.36666875  0.04573857     0.77300
C453        C  0.12973391  0.50892753  0.36235365    -0.12300
C454        C  0.12488339  0.46937132  0.33314890     0.04700
C455        C  0.09262843  0.43227907  0.34243845    -0.07600
C456        C  0.06404981  0.43752185  0.37882059    -0.08300
C457        C  0.06719608  0.47815600  0.40715609    -0.02900
C458        C  0.10170968  0.51339191  0.39969359     0.03900
N459        N  0.10939482  0.55298820  0.42990754     0.66400
H460        H  0.15471467  0.53711435  0.35541641     0.15300
H461        H  0.03857471  0.40960599  0.38470067     0.15000
N462        N  0.08795581  0.38955481  0.31482101     0.74100
O463        O  0.11043743  0.54447905  0.47044073    -0.39300
O464        O  0.12180654  0.59472976  0.41598276    -0.39300
O465        O  0.12162192  0.37014015  0.29740704    -0.40000
O466        O  0.05404907  0.11605413  0.31673523    -0.40000
C467        C  0.08628231  0.51329016  0.16985624    -0.12300
C468        C  0.11970359  0.47789561  0.16876651     0.04700
C469        C  0.12498380  0.44965575  0.12976579    -0.07600
C470        C  0.09262496  0.45093213  0.09777145    -0.08300
C471        C  0.05816779  0.48412022  0.10044535    -0.02900
C472        C  0.05572455  0.51691367  0.13622117     0.03900
N473        N  0.02178930  0.55291724  0.13976450     0.66400
H474        H  0.08318826  0.53768783  0.19778436     0.15300
H475        H  0.09637758  0.42851089  0.06859672     0.15000
N476        N  0.16524751  0.42540650  0.11853929     0.74100
O477        O  0.98161293  0.54028243  0.13610442    -0.39300
O478        O  0.03145616  0.59615608  0.15175178    -0.39300
O479        O  0.16383235  0.38537517  0.09758621    -0.40000
O480        O  0.20328281  0.19969562  0.12742732    -0.40000
C481        C  0.33646810  0.33802789  0.40923052    -0.12300
C482        C  0.37097297  0.37361422  0.40893159     0.04700
C483        C  0.37389205  0.40782132  0.37439154    -0.07600
C484        C  0.34507803  0.40323458  0.33952517    -0.08300
C485        C  0.31354749  0.36475454  0.33749399    -0.02900
C486        C  0.30759869  0.33353656  0.37379416     0.03900
N487        N  0.27523664  0.29462980  0.37346181     0.66400
H488        H  0.33328672  0.31219239  0.43602547     0.15300
H489        H  0.34981738  0.42774322  0.31186682     0.15000
N490        N  0.40938022  0.44339166  0.37120236     0.74100
O491        O  0.28246768  0.25632762  0.35139634    -0.39300
O492        O  0.24197610  0.29605890  0.39907308    -0.38100
O493        O  0.43538435  0.44287496  0.33835073    -0.40000
O494        O  0.40964230  0.48026805  0.39628705    -0.40000
C495        C  0.37855478  0.36505528  0.17665003    -0.12300
C496        C  0.33394606  0.34903824  0.17350767     0.04700
C497        C  0.31839453  0.33661191  0.13116263    -0.07600
C498        C  0.34719819  0.33851328  0.09462238    -0.08300
C499        C  0.39121625  0.35392149  0.09866118    -0.02900
C500        C  0.40723672  0.36645190  0.14007638     0.03900
N501        N  0.45313505  0.37841820  0.14580336     0.66400
H502        H  0.39207872  0.37730413  0.20717842     0.15300
H503        H  0.33466500  0.32942740  0.06256497     0.15000
N504        N  0.27311036  0.32339063  0.12413366     0.74100
O505        O  0.46431449  0.41437150  0.16955851    -0.39300
O506        O  0.48203469  0.34821581  0.13355999    -0.39300
O507        O  0.24432029  0.35614774  0.12594573    -0.40000
O508        O  0.26358924  0.28257807  0.10670179    -0.40000
C509        C  0.81300086  0.45993288  0.37464943    -0.12300
C510        C  0.81746489  0.49576415  0.34145485     0.04700
C511        C  0.85077298  0.53297003  0.34630664    -0.07600
C512        C  0.88057896  0.53051972  0.38061071    -0.08300
C513        C  0.87796671  0.49248403  0.41133018    -0.02900
C514        C  0.84271201  0.45782287  0.40923981     0.03900
N515        N  0.83581166  0.42101537  0.44241293     0.66400
H516        H  0.78632322  0.43319894  0.37486585     0.15300
H517        H  0.90685870  0.55809991  0.38247551     0.15000
N518        N  0.85676451  0.57198362  0.31522192     0.74100
O519        O  0.83603490  0.17896018  0.48082140    -0.39300
O520        O  0.82334078  0.37809935  0.43198454    -0.39300
O521        O  0.82869174  0.35846352  0.31947199    -0.40000
O522        O  0.89341760  0.57716348  0.29499651    -0.40000
C523        C  0.84989436  0.27401499  0.10601563    -0.12300
C524        C  0.88066060  0.48839813  0.10243555     0.04700
C525        C  0.88418958  0.45223330  0.13516276    -0.07600
C526        C  0.85636310  0.45336452  0.17215448    -0.08300
C527        C  0.82536938  0.49049769  0.17804112    -0.02900
C528        C  0.82260609  0.27630554  0.14390479     0.03900
N529        N  0.79181370  0.31552574  0.14850114     0.66400
H530        H  0.84673556  0.30137987  0.08068358     0.15300
H531        H  0.86008659  0.42591270  0.19735260     0.15000
N532        N  0.91799627  0.41616573  0.13291856     0.74100
O533        O  0.79163132  0.34193184  0.18250722    -0.39300
O534        O  0.76932065  0.32822783  0.11626000    -0.39300
O535        O  0.95789638  0.42896806  0.13827372    -0.40000
O536        O  0.90748208  0.37110315  0.13210731    -0.40000
C537        C  0.59139840  0.40894055  0.32545310    -0.12300
C538        C  0.61515855  0.36614106  0.31717328     0.04700
C539        C  0.61313559  0.32761077  0.34788429    -0.07600
C540        C  0.58495638  0.33168553  0.38484952    -0.08300
C541        C  0.55939724  0.37374107  0.39242856    -0.02900
C542        C  0.56463435  0.41394030  0.36321509     0.03900
N543        N  0.54348189  0.45997569  0.37099176     0.66400
H544        H  0.59421893  0.43910876  0.30243480     0.15300
H545        H  0.58222756  0.30106824  0.40736033     0.15000
N546        N  0.63808315  0.28365956  0.34153952     0.74100
O547        O  0.55215328  0.48403282  0.40520899    -0.39300
O548        O  0.52599279  0.48191597  0.33963156    -0.39300
O549        O  0.65512434  0.26302616  0.37385135    -0.40000
O550        O  0.63945855  0.26261765  0.30470127    -0.40000
C551        C  0.62968003  0.33056625  0.12022428    -0.12300
C552        C  0.62560004  0.36602604  0.15389120     0.04700
C553        C  0.59510798  0.40437168  0.14809880    -0.07600
C554        C  0.56859774  0.40481509  0.11132123    -0.08300
C555        C  0.57080233  0.36769107  0.07956636    -0.02900
C556        C  0.60263078  0.33087031  0.08336706     0.03900
N557        N  0.60874435  0.29438284  0.04978528     0.66400
H558        H  0.65389796  0.30226286  0.12147257     0.15300
H559        H  0.54437422  0.43344921  0.10877934     0.15000
N560        N  0.58867332  0.44189812  0.18046409     0.74100
O561        O  0.60894739  0.30655096  0.00996767    -0.39300
O562        O  0.61936853  0.25130903  0.05976658    -0.39300
O563        O  0.61287588  0.48015171  0.17930372    -0.40000
O564        O  0.55298572  0.44231243  0.20267083    -0.40000
C565        C  0.65183010  0.36438763  0.69562285     0.86500
C566        C  0.68377164  0.40828702  0.70186271    -0.53800
C567        C  0.70495734  0.40913278  0.74106328     0.09400
C568        C  0.69128651  0.36560394  0.77077495     0.20300
C569        C  0.68136710  0.31977644  0.70327265    -0.54500
C570        C  0.70294551  0.32074209  0.74242087     0.09500
C571        C  0.62033059  0.36437500  0.73536979    -0.54000
C572        C  0.64041313  0.36587385  0.77460759     0.10000
H573        H  0.69000664  0.43455794  0.67592371     0.14600
H574        H  0.70593672  0.36624101  0.80330159     0.00300
H575        H  0.68609202  0.29120731  0.67949019     0.14900
H576        H  0.58453308  0.36333032  0.73261707     0.14700
C577        C  0.79208913  0.49187283  0.79867398     0.86500
C578        C  0.75951623  0.28559133  0.79306125    -0.53800
C579        C  0.73750411  0.28485501  0.75418545     0.09400
C580        C  0.75182569  0.49129446  0.72395815     0.20300
C581        C  0.76203530  0.44614978  0.79111676    -0.54500
C582        C  0.74000958  0.44624400  0.75236390     0.09500
C583        C  0.82320583  0.49270723  0.75854139    -0.54000
C584        C  0.80252866  0.49309076  0.71961903     0.10000
H585        H  0.75448497  0.31271030  0.81849669     0.14600
H586        H  0.73710367  0.49071668  0.69146408     0.00300
H587        H  0.75773297  0.41694509  0.81421453     0.14900
H588        H  0.85904341  0.49238612  0.76070486     0.14700
C589        C  0.30136073  0.35164331  0.71410905     0.86500
C590        C  0.27400667  0.30371233  0.71845384    -0.53800
C591        C  0.24382133  0.30267199  0.75231182     0.09400
C592        C  0.24588645  0.34939956  0.78161928     0.20300
C593        C  0.26781916  0.39307177  0.71500667    -0.54500
C594        C  0.23886416  0.39255176  0.74991448     0.09500
C595        C  0.32390151  0.35553960  0.75843332    -0.54000
C596        C  0.29537398  0.35483307  0.79371074     0.10000
H597        H  0.27619845  0.27362633  0.69519522     0.14600
H598        H  0.22232390  0.34852050  0.81000125     0.00300
H599        H  0.26638850  0.42025103  0.68915184     0.14900
H600        H  0.35946259  0.35781191  0.76247471     0.14700
C601        C  0.14591357  0.47291178  0.71110377     0.86500
C602        C  0.17998919  0.26716321  0.71362095    -0.53800
C603        C  0.20574364  0.26717349  0.74979947     0.09400
C604        C  0.19562321  0.47249856  0.78055440     0.20300
C605        C  0.17366967  0.42660582  0.71571703    -0.54500
C606        C  0.20092370  0.42671451  0.75062597     0.09500
C607        C  0.11965997  0.47419063  0.75454759    -0.54000
C608        C  0.14516452  0.47393434  0.79094749     0.10000
H609        H  0.18306734  0.29545768  0.68873834     0.14600
H610        H  0.21662093  0.47192033  0.80976400     0.00300
H611        H  0.17301182  0.39577458  0.69329825     0.14900
H612        H  0.08371744  0.47412251  0.75661213     0.14700
O613        O  0.01430654  0.27525516  0.54928254    -0.71800
O614        O  0.93235209  0.27801120  0.95764067    -0.72000
O615        O  0.92617385  0.27812269  0.54743186    -0.71900
O616        O  0.02150753  0.27276148  0.95946449    -0.71900
O617        O  0.01307008  0.44587167  0.95910316    -0.71900
O618        O  0.92660655  0.44778279  0.54751611    -0.71900
O619        O  0.92424939  0.44991811  0.96080688    -0.71800
O620        O  0.01455585  0.44395881  0.54463212    -0.72000
V621        V  0.97258288  0.27530342  0.50401237     1.35200
V622        V  0.96983684  0.44765582  0.50202166     1.35200
C623        C  0.02866268  0.48318805  0.56226680     0.77400
C624        C  0.91202245  0.49052356  0.94564025     0.77500
C625        C  0.91283832  0.48792011  0.56272151     0.77400
C626        C  0.03210400  0.48454205  0.94493248     0.77300
O627        O  0.51425226  0.33234751  0.94365132    -0.71800
O628        O  0.42913459  0.32792711  0.53997093    -0.72000
O629        O  0.42485292  0.32801818  0.95153297    -0.71900
O630        O  0.51778050  0.32915391  0.53260966    -0.71900
O631        O  0.52020847  0.40890937  0.53277754    -0.71900
O632        O  0.42211284  0.40705887  0.95874040    -0.71900
O633        O  0.43261450  0.40756848  0.54470117    -0.71800
O634        O  0.51037192  0.41179978  0.94638071    -0.72000
V635        V  0.47293971  0.32852036  0.99116225     1.35200
V636        V  0.47147333  0.40821014  0.49502337     1.35200
C637        C  0.52623782  0.37379760  0.92863229     0.77400
C638        C  0.41788714  0.36693791  0.55931415     0.77500
C639        C  0.40688280  0.36812817  0.94182406     0.77400
C640        C  0.53501265  0.36885496  0.54641083     0.77300
C641        C  0.12755548  0.51271627  0.86324035    -0.12300
C642        C  0.12380171  0.47204377  0.83512597     0.04700
C643        C  0.09314295  0.43382814  0.84574852    -0.07600
C644        C  0.06472255  0.43900940  0.88221483    -0.08300
C645        C  0.06652273  0.48075463  0.90937315    -0.02900
C646        C  0.09982363  0.51717410  0.90081261     0.03900
N647        N  0.10669265  0.55789138  0.93011017     0.66400
H648        H  0.15150036  0.54165588  0.85527466     0.15300
H649        H  0.04034747  0.41016048  0.88901065     0.15000
N650        N  0.08988920  0.38999517  0.81936480     0.74100
O651        O  0.10646055  0.55091306  0.97092246    -0.39300
O652        O  0.12024184  0.59887901  0.91538050    -0.39300
O653        O  0.12423631  0.37134794  0.80262001    -0.40000
O654        O  0.05074180  0.11783195  0.81130290    -0.40000
C655        C  0.08232122  0.50928179  0.67086399    -0.12300
C656        C  0.11760558  0.47616247  0.67009147     0.04700
C657        C  0.12607914  0.44990315  0.63036208    -0.07600
C658        C  0.09512341  0.45080646  0.59685594    -0.08300
C659        C  0.05896539  0.48177383  0.59922107    -0.02900
C660        C  0.05336898  0.51246165  0.63595566     0.03900
N661        N  0.01766144  0.54606785  0.63885440     0.66400
H662        H  0.07683867  0.53277732  0.69904594     0.15300
H663        H  0.10102618  0.42982930  0.56717176     0.15000
N664        N  0.16754090  0.42701323  0.62081322     0.74100
O665        O  0.97952371  0.53103184  0.65076323    -0.39300
O666        O  0.02529583  0.59151337  0.63435045    -0.39300
O667        O  0.16841863  0.38810758  0.59824735    -0.40000
O668        O  0.20149435  0.19806869  0.62119154    -0.40000
C669        C  0.34355259  0.32718775  0.90399764    -0.12300
C670        C  0.37018184  0.36956731  0.91014311     0.04700
C671        C  0.36429732  0.41048476  0.88240105    -0.07600
C672        C  0.33684055  0.40543508  0.84626237    -0.08300
C673        C  0.31332053  0.36164320  0.83804562    -0.02900
C674        C  0.31505033  0.32288838  0.86834578     0.03900
N675        N  0.29110869  0.27764463  0.86160908     0.66400
H676        H  0.34670465  0.29611577  0.92566608     0.15300
H677        H  0.33525503  0.43536006  0.82309725     0.15000
N678        N  0.38726382  0.45652786  0.88888275     0.74100
O679        O  0.29554231  0.25465703  0.82595284    -0.39300
O680        O  0.27035628  0.25736570  0.89318079    -0.38100
O681        O  0.40483785  0.47871195  0.85652603    -0.40000
O682        O  0.38092821  0.48004547  0.92401689    -0.40000
C683        C  0.37271739  0.38048265  0.67505478    -0.12300
C684        C  0.33157393  0.35504829  0.67301168     0.04700
C685        C  0.31813823  0.33711958  0.63126785    -0.07600
C686        C  0.34747662  0.34039618  0.59517429    -0.08300
C687        C  0.38836946  0.36475302  0.59814876    -0.02900
C688        C  0.40084542  0.38552652  0.63826607     0.03900
N689        N  0.44280998  0.41016849  0.64263123     0.66400
H690        H  0.38307994  0.39819360  0.70490012     0.15300
H691        H  0.33746081  0.32559599  0.56385455     0.15000
N692        N  0.27463627  0.31697301  0.62403128     0.74100
O693        O  0.44891742  0.45263958  0.62696260    -0.39300
O694        O  0.47143081  0.39250500  0.66723545    -0.39300
O695        O  0.24096091  0.34102802  0.63507691    -0.40000
O696        O  0.26983717  0.27926029  0.60033345    -0.40000
C697        C  0.81487130  0.45797721  0.87339355    -0.12300
C698        C  0.81851799  0.49488807  0.84107542     0.04700
C699        C  0.85029928  0.53339169  0.84724062    -0.07600
C700        C  0.87936987  0.53165617  0.88218127    -0.08300
C701        C  0.87757934  0.49281439  0.91212150    -0.02900
C702        C  0.84388261  0.45650817  0.90855423     0.03900
N703        N  0.83783984  0.41852791  0.94077808     0.66400
H704        H  0.78954284  0.42989352  0.87254110     0.15300
H705        H  0.90449584  0.56037164  0.88507688     0.15000
N706        N  0.85540133  0.57328237  0.81696991     0.74100
O707        O  0.83644674  0.18253068  0.98244868    -0.39300
O708        O  0.82825333  0.37515999  0.92909685    -0.39300
O709        O  0.83004291  0.35685478  0.81580118    -0.40000
O710        O  0.89153306  0.57904351  0.79594375    -0.40000
C711        C  0.84832628  0.27410089  0.60733353    -0.12300
C712        C  0.88213643  0.48783291  0.60113319     0.04700
C713        C  0.88615446  0.45247530  0.63443569    -0.07600
C714        C  0.85922758  0.45464502  0.67199986    -0.08300
C715        C  0.82787769  0.49148720  0.67754408    -0.02900
C716        C  0.82080699  0.27583438  0.64502297     0.03900
N717        N  0.79040647  0.31533587  0.65013208     0.66400
H718        H  0.84540193  0.30190566  0.58234864     0.15300
H719        H  0.86331336  0.42759226  0.69746798     0.15000
N720        N  0.91929798  0.41576478  0.63184440     0.74100
O721        O  0.79126721  0.34192928  0.68400402    -0.39300
O722        O  0.76752286  0.32828724  0.61825116    -0.39300
O723        O  0.95592949  0.42304212  0.65008102    -0.40000
O724        O  0.90962388  0.37364488  0.61715652    -0.40000
C725        C  0.57905802  0.40319359  0.81785380    -0.12300
C726        C  0.61416639  0.37006102  0.81619546     0.04700
C727        C  0.62209822  0.34097952  0.85328042    -0.07600
C728        C  0.59429265  0.34507828  0.89047935    -0.08300
C729        C  0.55819985  0.37685433  0.89135616    -0.02900
C730        C  0.55103957  0.40683317  0.85476087     0.03900
N731        N  0.51368816  0.43830735  0.85301064     0.66400
H732        H  0.57293534  0.42621740  0.78987413     0.15300
H733        H  0.59972699  0.32158819  0.91830411     0.15000
N734        N  0.65571272  0.30454175  0.85272201     0.74100
O735        O  0.51105244  0.47473089  0.87849025    -0.39300
O736        O  0.48810861  0.43524067  0.82096250    -0.39300
O737        O  0.67985591  0.29948653  0.88553432    -0.40000
O738        O  0.65629297  0.27228767  0.82298868    -0.40000
C739        C  0.62792413  0.33078311  0.62041327    -0.12300
C740        C  0.62581984  0.36751069  0.65311699     0.04700
C741        C  0.59628721  0.40680052  0.64701867    -0.07600
C742        C  0.56903428  0.40717889  0.61078913    -0.08300
C743        C  0.56952939  0.36918003  0.57989887    -0.02900
C744        C  0.60011891  0.33107948  0.58410308     0.03900
N745        N  0.60400664  0.29300608  0.55161849     0.66400
H746        H  0.65094105  0.30129387  0.62219953     0.15300
H747        H  0.54569464  0.43666830  0.60795898     0.15000
N748        N  0.59108914  0.44512212  0.67884746     0.74100
O749        O  0.60416002  0.30359471  0.51143765    -0.39300
O750        O  0.61261929  0.24972634  0.56285041    -0.39300
O751        O  0.61743056  0.48159617  0.67803577    -0.40000
O752        O  0.55474097  0.44856079  0.69964660    -0.40000
C753        C  0.65166621  0.61440168  0.19552300     0.86500
C754        C  0.68348002  0.65839173  0.20188681    -0.53800
C755        C  0.70461171  0.65920917  0.24111428     0.09400
C756        C  0.69100604  0.61557526  0.27072718     0.20300
C757        C  0.68131521  0.56987897  0.20312259    -0.54500
C758        C  0.70282107  0.57081705  0.24230774     0.09500
C759        C  0.62010396  0.61420241  0.23522088    -0.54000
C760        C  0.64012374  0.61567387  0.27449422     0.10000
H761        H  0.68968429  0.68473800  0.17600552     0.14600
H762        H  0.70561057  0.61618634  0.30326439     0.00300
H763        H  0.68620008  0.54142346  0.17926347     0.14900
H764        H  0.58431426  0.61304679  0.23240096     0.14700
C765        C  0.79168986  0.74189142  0.29886909     0.86500
C766        C  0.75944730  0.53577549  0.29294171    -0.53800
C767        C  0.73743090  0.53499652  0.25406854     0.09400
C768        C  0.75150558  0.74138437  0.22410679     0.20300
C769        C  0.76159372  0.69621076  0.29127848    -0.54500
C770        C  0.73961660  0.69634138  0.25249431     0.09500
C771        C  0.82284202  0.74270853  0.25876767    -0.54000
C772        C  0.80220929  0.74311886  0.21982181     0.10000
H773        H  0.75440708  0.56290634  0.31836301     0.14600
H774        H  0.73681537  0.74083352  0.19159722     0.00300
H775        H  0.75722723  0.66704688  0.31435008     0.14900
H776        H  0.85867436  0.74235558  0.26097089     0.14700
C777        C  0.30166452  0.60186815  0.21427887     0.86500
C778        C  0.27432262  0.55392195  0.21857203    -0.53800
C779        C  0.24411871  0.55283488  0.25241304     0.09400
C780        C  0.24614964  0.59952691  0.28175599     0.20300
C781        C  0.26810625  0.64328695  0.21520054    -0.54500
C782        C  0.23913070  0.64270921  0.25009249     0.09500
C783        C  0.32417885  0.60573733  0.25862094    -0.54000
C784        C  0.29562159  0.60496667  0.29387553     0.10000
H785        H  0.27651648  0.52388120  0.19526508     0.14600
H786        H  0.22257449  0.59860283  0.31012728     0.00300
H787        H  0.26666543  0.67048757  0.18936362     0.14900
H788        H  0.35973132  0.60801478  0.26270622     0.14700
C789        C  0.14599318  0.72281868  0.21129241     0.86500
C790        C  0.18026955  0.51750481  0.21364811    -0.53800
C791        C  0.20602014  0.51738222  0.24982382     0.09400
C792        C  0.19574969  0.72256198  0.28072659     0.20300
C793        C  0.17386776  0.67659806  0.21590005    -0.54500
C794        C  0.20114090  0.67679674  0.25079493     0.09500
C795        C  0.11975588  0.72402660  0.25474420    -0.54000
C796        C  0.14527426  0.72383898  0.29113799     0.10000
H797        H  0.18338942  0.54584817  0.18881470     0.14600
H798        H  0.21681304  0.72210009  0.30991183     0.00300
H799        H  0.17325104  0.64572786  0.19353031     0.14900
H800        H  0.08381119  0.72387186  0.25681028     0.14700
O801        O  0.01443646  0.52593276  0.04929416    -0.71800
O802        O  0.93232417  0.52822433  0.45752056    -0.72000
O803        O  0.92628640  0.52865219  0.04747762    -0.71900
O804        O  0.02148163  0.52302643  0.45929972    -0.71900
O805        O  0.01288763  0.69544594  0.45909193    -0.71900
O806        O  0.92642283  0.69763171  0.04789004    -0.71900
O807        O  0.92404438  0.69955942  0.46083668    -0.71800
O808        O  0.01436497  0.69376738  0.04501031    -0.72000
V809        V  0.97268705  0.52587601  0.00403830     1.35200
V810        V  0.96964863  0.69744684  0.00239753     1.35200
C811        C  0.02847679  0.73300082  0.06263628     0.77400
C812        C  0.91183781  0.74018208  0.44568299     0.77500
C813        C  0.91265305  0.73779002  0.06304635     0.77400
C814        C  0.03197554  0.73411535  0.44497911     0.77300
O815        O  0.51424256  0.58210940  0.44388333    -0.71800
O816        O  0.42911929  0.57820785  0.03989833    -0.72000
O817        O  0.42485266  0.57804172  0.45179520    -0.71900
O818        O  0.51774323  0.57938830  0.03246247    -0.71900
O819        O  0.52024871  0.65914342  0.03262274    -0.71900
O820        O  0.42219667  0.65709012  0.45898623    -0.71900
O821        O  0.43268050  0.65784142  0.04469725    -0.71800
O822        O  0.51041086  0.66158065  0.44639914    -0.72000
V823        V  0.47293093  0.57848937  0.49141051     1.35200
V824        V  0.47145462  0.65849623  0.99495558     1.35200
C825        C  0.52620681  0.62350256  0.42872511     0.77400
C826        C  0.41795123  0.61720934  0.05930375     0.77500
C827        C  0.40691220  0.61816891  0.44209877     0.77400
C828        C  0.53502219  0.61907071  0.04624361     0.77300
C829        C  0.12739966  0.76261973  0.36335773    -0.12300
C830        C  0.12390427  0.72186107  0.33531569     0.04700
C831        C  0.09342983  0.68346909  0.34597740    -0.07600
C832        C  0.06494932  0.68853984  0.38242301    -0.08300
C833        C  0.06648764  0.73036995  0.40949358    -0.02900
C834        C  0.09961213  0.76697067  0.40089553     0.03900
N835        N  0.10623880  0.80778843  0.43012761     0.66400
H836        H  0.15117164  0.79171788  0.35535340     0.15300
H837        H  0.04071953  0.65955254  0.38925378     0.15000
N838        N  0.09039214  0.63958671  0.31963366     0.74100
O839        O  0.10628149  0.80084636  0.47093902    -0.39300
O840        O  0.11932923  0.84890376  0.41530881    -0.39300
O841        O  0.12482384  0.62117023  0.30284785    -0.40000
O842        O  0.05064608  0.36843474  0.31092912    -0.40000
C843        C  0.08247632  0.75931744  0.17104923    -0.12300
C844        C  0.11762849  0.72602596  0.17030954     0.04700
C845        C  0.12588477  0.69954398  0.13065799    -0.07600
C846        C  0.09484260  0.70043443  0.09723469    -0.08300
C847        C  0.05881493  0.73158634  0.09956816    -0.02900
C848        C  0.05343851  0.76247846  0.13620296     0.03900
N849        N  0.01787481  0.79627768  0.13907213     0.66400
H850        H  0.07714997  0.78293410  0.19918060     0.15300
H851        H  0.10059978  0.67930524  0.06760946     0.15000
N852        N  0.16725525  0.67650416  0.12103805     0.74100
O853        O  0.97952526  0.78131381  0.15033616    -0.39300
O854        O  0.02576807  0.84173904  0.13510937    -0.39300
O855        O  0.16794740  0.63745546  0.09866094    -0.40000
O856        O  0.20167407  0.44867153  0.12114772    -0.40000
C857        C  0.34370533  0.57717457  0.40416247    -0.12300
C858        C  0.37020635  0.61962324  0.41043686     0.04700
C859        C  0.36425525  0.66059682  0.38278185    -0.07600
C860        C  0.33690206  0.65553864  0.34656962    -0.08300
C861        C  0.31350968  0.61169669  0.33823206    -0.02900
C862        C  0.31528512  0.57286433  0.36845253     0.03900
N863        N  0.29149562  0.52754331  0.36157938     0.66400
H864        H  0.34692100  0.54605244  0.42576231     0.15300
H865        H  0.33528114  0.68551039  0.32345519     0.15000
N866        N  0.38702905  0.70672081  0.38945074     0.74100
O867        O  0.29585398  0.50481411  0.32578325    -0.39300
O868        O  0.27100740  0.50692781  0.39314124    -0.38100
O869        O  0.40454275  0.72914556  0.35719461    -0.40000
O870        O  0.38059560  0.73002319  0.42468320    -0.40000
C871        C  0.37314375  0.63041306  0.17521616    -0.12300
C872        C  0.33185404  0.60527991  0.17316024     0.04700
C873        C  0.31826627  0.58758695  0.13138752    -0.07600
C874        C  0.34752290  0.59089690  0.09523596    -0.08300
C875        C  0.38852465  0.61501196  0.09820282    -0.02900
C876        C  0.40121293  0.63547231  0.13838043     0.03900
N877        N  0.44331912  0.65981305  0.14274968     0.66400
H878        H  0.38367206  0.64790765  0.20509814     0.15300
H879        H  0.33737344  0.57628674  0.06389075     0.15000
N880        N  0.27471434  0.56755764  0.12420328     0.74100
O881        O  0.44973739  0.70216780  0.12693213    -0.39300
O882        O  0.47177204  0.64203408  0.16747846    -0.39300
O883        O  0.24110632  0.59167698  0.13533221    -0.40000
O884        O  0.26980262  0.52988982  0.10047153    -0.40000
C885        C  0.81458773  0.70776374  0.37347939    -0.12300
C886        C  0.81812781  0.74482085  0.34127787     0.04700
C887        C  0.84988524  0.78332751  0.34750370    -0.07600
C888        C  0.87902627  0.78149571  0.38238576    -0.08300
C889        C  0.87734008  0.74253224  0.41220829    -0.02900
C890        C  0.84367702  0.70619849  0.40858110     0.03900
N891        N  0.83773835  0.66806805  0.44067823     0.66400
H892        H  0.78935472  0.67965590  0.37257487     0.15300
H893        H  0.90411824  0.81022701  0.38531978     0.15000
N894        N  0.85490705  0.82332185  0.31733457     0.74100
O895        O  0.83637976  0.43288439  0.48236216    -0.39300
O896        O  0.82823825  0.62472786  0.42885688    -0.39300
O897        O  0.82997914  0.60689323  0.31531974    -0.40000
O898        O  0.89096574  0.82911899  0.29619190    -0.40000
C899        C  0.84840882  0.52451374  0.10735052    -0.12300
C900        C  0.88193797  0.73775115  0.10143426     0.04700
C901        C  0.88602840  0.70252421  0.13482983    -0.07600
C902        C  0.85905675  0.70471857  0.17235646    -0.08300
C903        C  0.82760350  0.74147292  0.17777761    -0.02900
C904        C  0.82081614  0.52614544  0.14499226     0.03900
N905        N  0.79038787  0.56561814  0.15011380     0.66400
H906        H  0.84551027  0.55236409  0.08240179     0.15300
H907        H  0.86318917  0.67775584  0.19789126     0.15000
N908        N  0.91928575  0.66593352  0.13236720     0.74100
O909        O  0.79119836  0.59216293  0.18401726    -0.39300
O910        O  0.76755466  0.57861905  0.11821320    -0.39300
O911        O  0.95587219  0.67340362  0.15063708    -0.40000
O912        O  0.90974208  0.62372487  0.11780201    -0.40000
C913        C  0.57848565  0.65254890  0.31768234    -0.12300
C914        C  0.61382381  0.61970803  0.31606948     0.04700
C915        C  0.62199953  0.59083244  0.35323154    -0.07600
C916        C  0.59427682  0.59492191  0.39049215    -0.08300
C917        C  0.55801374  0.62644683  0.39133628    -0.02900
C918        C  0.55053789  0.65612620  0.35463593     0.03900
N919        N  0.51292352  0.68719963  0.35285919     0.66400
H920        H  0.57213410  0.67540524  0.28965391     0.15300
H921        H  0.59992807  0.57163769  0.41840421     0.15000
N922        N  0.65579259  0.55459988  0.35270638     0.74100
O923        O  0.51031241  0.72405703  0.37783876    -0.39300
O924        O  0.48688544  0.68318253  0.32124375    -0.39300
O925        O  0.68003782  0.54981101  0.38547943    -0.40000
O926        O  0.65646502  0.52224876  0.32305875    -0.40000
C927        C  0.62772977  0.58074746  0.12034430    -0.12300
C928        C  0.62571076  0.61753585  0.15299804     0.04700
C929        C  0.59629773  0.65691489  0.14684304    -0.07600
C930        C  0.56912592  0.65739228  0.11056476    -0.08300
C931        C  0.56953713  0.61935056  0.07971735    -0.02900
C932        C  0.59997821  0.58112071  0.08400196     0.03900
N933        N  0.60374725  0.54297340  0.05157668     0.66400
H934        H  0.65059473  0.55112160  0.12221372     0.15300
H935        H  0.54588449  0.68697030  0.10768844     0.15000
N936        N  0.59115447  0.69525196  0.17865663     0.74100
O937        O  0.60410092  0.55351132  0.01138124    -0.39300
O938        O  0.61202895  0.49963404  0.06289308    -0.39300
O939        O  0.61716737  0.73200293  0.17742644    -0.40000
O940        O  0.55497849  0.69841416  0.19979647    -0.40000
C941        C  0.65150173  0.61290394  0.69658839     0.86500
C942        C  0.68222549  0.65770906  0.70338030    -0.53800
C943        C  0.70366025  0.65849401  0.74246049     0.09400
C944        C  0.69140095  0.61398453  0.77153048     0.20300
C945        C  0.68232223  0.56922211  0.70341685    -0.54500
C946        C  0.70396407  0.57005878  0.74246626     0.09500
C947        C  0.62013037  0.61133314  0.73655436    -0.54000
C948        C  0.64068388  0.61261392  0.77549460     0.10000
H949        H  0.68732196  0.68477814  0.67790809     0.14600
H950        H  0.70602902  0.61434272  0.80412272     0.00300
H951        H  0.68776855  0.54127204  0.67924397     0.14900
H952        H  0.58429763  0.60987544  0.73434238     0.14700
C953        C  0.79054100  0.74223565  0.79951393     0.86500
C954        C  0.76056388  0.53483523  0.79277217    -0.53800
C955        C  0.73892865  0.53456427  0.75372870     0.09400
C956        C  0.74981077  0.74094238  0.72502703     0.20300
C957        C  0.75995912  0.69675240  0.79273074    -0.54500
C958        C  0.73789185  0.69637675  0.75398923     0.09500
C959        C  0.82137195  0.74189881  0.75916131    -0.54000
C960        C  0.80042666  0.74207244  0.72040595     0.10000
H961        H  0.75488531  0.56124838  0.81866177     0.14600
H962        H  0.73496928  0.74016104  0.69260137     0.00300
H963        H  0.75566845  0.66777074  0.81619996     0.14900
H964        H  0.85722063  0.74113889  0.76103714     0.14700
C965        C  0.30268293  0.59820789  0.71416229     0.86500
C966        C  0.27344270  0.55174448  0.71802287    -0.53800
C967        C  0.24313382  0.55189699  0.75182517     0.09400
C968        C  0.24617660  0.59888636  0.78095357     0.20300
C969        C  0.27061094  0.64118466  0.71438693    -0.54500
C970        C  0.24097370  0.64196518  0.74878315     0.09500
C971        C  0.32440193  0.60105934  0.75886193    -0.54000
C972        C  0.29552839  0.60290647  0.79378187     0.10000
H973        H  0.27464616  0.52191924  0.69439653     0.14600
H974        H  0.22210433  0.59932851  0.80890927     0.00300
H975        H  0.27058388  0.66842140  0.68848409     0.14900
H976        H  0.35976931  0.60158051  0.76380712     0.14700
C977        C  0.14810145  0.72316027  0.70960419     0.86500
C978        C  0.17870530  0.51636035  0.71386830    -0.53800
C979        C  0.20465288  0.51688274  0.74991386     0.09400
C980        C  0.19714508  0.72174817  0.77957130     0.20300
C981        C  0.17702978  0.67755917  0.71319965    -0.54500
C982        C  0.20373479  0.67712054  0.74852285     0.09500
C983        C  0.12145034  0.72240493  0.75276635    -0.54000
C984        C  0.14650489  0.72161713  0.78944300     0.10000
H985        H  0.18234828  0.54374174  0.68817873     0.14600
H986        H  0.21781889  0.72088768  0.80904692     0.00300
H987        H  0.17704132  0.64707169  0.69048279     0.14900
H988        H  0.08548194  0.72203547  0.75434201     0.14700
O989        O  0.01568578  0.52370860  0.54794453    -0.71800
O990        O  0.93047206  0.52945991  0.95937178    -0.72000
O991        O  0.92767480  0.52748191  0.54564633    -0.71900
O992        O  0.01964785  0.52530333  0.96072101    -0.71900
O993        O  0.01309844  0.69349379  0.95711905    -0.71900
O994        O  0.92483759  0.69851544  0.54853592    -0.71900
O995        O  0.92427552  0.69862685  0.96020700    -0.71800
O996        O  0.01273026  0.69567945  0.54685281    -0.72000
V997        V  0.97428807  0.52416024  0.50240495     1.35200
V998        V  0.96870841  0.69889525  0.50367029     1.35200
C999        C  0.02705770  0.73504148  0.56406678     0.77400
C1000       C  0.91273605  0.73936586  0.94471373     0.77500
C1001       C  0.91121076  0.73852196  0.56413574     0.77400
C1002       C  0.03281684  0.73190719  0.94326672     0.77300
O1003       O  0.51238533  0.58258771  0.94505830    -0.71800
O1004       O  0.43205352  0.57128096  0.53898078    -0.72000
O1005       O  0.42279321  0.58171907  0.95251202    -0.71900
O1006       O  0.52069275  0.57659650  0.53111486    -0.71900
O1007       O  0.52054796  0.65632220  0.53321588    -0.71900
O1008       O  0.42241812  0.66121064  0.95751607    -0.71900
O1009       O  0.43312634  0.65078196  0.54607700    -0.71800
O1010       O  0.51086932  0.66205654  0.94563241    -0.72000
V1011       V  0.47049773  0.58195062  0.99241464     1.35200
V1012       V  0.47151948  0.65488158  0.49599097     1.35200
C1013       C  0.52617239  0.62310592  0.92918480     0.77400
C1014       C  0.41976784  0.60904418  0.55951827     0.77500
C1015       C  0.40630335  0.62212517  0.94155835     0.77400
C1016       C  0.53669234  0.61656256  0.54583756     0.77300
C1017       C  0.12930107  0.75880256  0.86250894    -0.12300
C1018       C  0.12451650  0.71918517  0.83336052     0.04700
C1019       C  0.09236600  0.68199967  0.84273191    -0.07600
C1020       C  0.06385747  0.68717575  0.87918036    -0.08300
C1021       C  0.06695021  0.72786231  0.90746121    -0.02900
C1022       C  0.10132365  0.76321331  0.89987471     0.03900
N1023       N  0.10889245  0.80290297  0.92999828     0.66400
H1024       H  0.15417911  0.78708328  0.85551028     0.15300
H1025       H  0.03847116  0.65918222  0.88514425     0.15000
N1026       N  0.08772252  0.63925136  0.81513845     0.74100
O1027       O  0.11064772  0.79438866  0.97048854    -0.39300
O1028       O  0.12040907  0.84487513  0.91594241    -0.39300
O1029       O  0.12138966  0.61993024  0.79763818    -0.40000
O1030       O  0.05336889  0.36697389  0.81640797    -0.40000
C1031       C  0.08592527  0.76282747  0.66997644    -0.12300
C1032       C  0.11940893  0.72750673  0.66893615     0.04700
C1033       C  0.12481436  0.69928304  0.62992900    -0.07600
C1034       C  0.09248840  0.70049823  0.59788364    -0.08300
C1035       C  0.05797006  0.73362379  0.60051454    -0.02900
C1036       C  0.05542617  0.76639983  0.63629216     0.03900
N1037       N  0.02145681  0.80236529  0.63976775     0.66400
H1038       H  0.08274551  0.78722601  0.69789529     0.15300
H1039       H  0.09631339  0.67809281  0.56870893     0.15000
N1040       N  0.16514624  0.67509875  0.61876920     0.74100
O1041       O  0.98128031  0.78964184  0.63630052    -0.39300
O1042       O  0.03112056  0.84570542  0.65146533    -0.39300
O1043       O  0.16385017  0.63510663  0.59775117    -0.40000
O1044       O  0.20336490  0.45020065  0.62752707    -0.40000
C1045       C  0.33644790  0.58818476  0.90930456    -0.12300
C1046       C  0.37077432  0.62398072  0.90903051     0.04700
C1047       C  0.37349604  0.65825706  0.87452231    -0.07600
C1048       C  0.34475343  0.65343042  0.83961330    -0.08300
C1049       C  0.31349194  0.61469832  0.83752653    -0.02900
C1050       C  0.30767119  0.58343823  0.87381969     0.03900
N1051       N  0.27562772  0.54419839  0.87341346     0.66400
H1052       H  0.33342486  0.56229427  0.93607069     0.15300
H1053       H  0.34931222  0.67801282  0.81198353     0.15000
N1054       N  0.40866275  0.69424241  0.87143724     0.74100
O1055       O  0.28228957  0.50699281  0.84971656    -0.39300
O1056       O  0.24347846  0.54403085  0.90045180    -0.38100
O1057       O  0.43410823  0.69477346  0.83815436    -0.40000
O1058       O  0.40894665  0.73061200  0.89710196    -0.40000
C1059       C  0.37813504  0.61638897  0.67665442    -0.12300
C1060       C  0.33373645  0.59961805  0.67350912     0.04700
C1061       C  0.31839388  0.58664360  0.63118301    -0.07600
C1062       C  0.34737873  0.58839262  0.59476624    -0.08300
C1063       C  0.39123571  0.60438387  0.59884206    -0.02900
C1064       C  0.40693855  0.61773323  0.64017817     0.03900
N1065       N  0.45268665  0.63038590  0.64595347     0.66400
H1066       H  0.39136810  0.62923519  0.70713890     0.15300
H1067       H  0.33509066  0.57878227  0.56272850     0.15000
N1068       N  0.27322484  0.57281581  0.62403523     0.74100
O1069       O  0.46339440  0.66723380  0.66882845    -0.39300
O1070       O  0.48192838  0.60015682  0.63465242    -0.39300
O1071       O  0.24363869  0.60450147  0.62816669    -0.40000
O1072       O  0.26420454  0.53272375  0.60509803    -0.40000
C1073       C  0.81296779  0.70961878  0.87483107    -0.12300
C1074       C  0.81743471  0.74549370  0.84167147     0.04700
C1075       C  0.85068861  0.78273509  0.84660037    -0.07600
C1076       C  0.88044181  0.78030668  0.88094772    -0.08300
C1077       C  0.87783451  0.74223810  0.91163681    -0.02900
C1078       C  0.84262425  0.70752453  0.90947090     0.03900
N1079       N  0.83570719  0.67068298  0.94261467     0.66400
H1080       H  0.78632955  0.68284086  0.87498739     0.15300
H1081       H  0.90668230  0.80792678  0.88286343     0.15000
N1082       N  0.85666247  0.82178770  0.81555958     0.74100
O1083       O  0.83621544  0.42942765  0.98095133    -0.39300
O1084       O  0.82321211  0.62778616  0.93215066    -0.39300
O1085       O  0.82891386  0.60844388  0.81912978    -0.40000
O1086       O  0.89324953  0.82687850  0.79520029    -0.40000
C1087       C  0.84997650  0.52409114  0.60597884    -0.12300
C1088       C  0.88057169  0.73807090  0.60251966     0.04700
C1089       C  0.88415797  0.70196366  0.63528470    -0.07600
C1090       C  0.85641537  0.70316722  0.67233498    -0.08300
C1091       C  0.82543667  0.74031537  0.67823240    -0.02900
C1092       C  0.82274472  0.52636850  0.64391005     0.03900
N1093       N  0.79203052  0.56565477  0.64861413     0.66400
H1094       H  0.84682754  0.55151178  0.58069333     0.15300
H1095       H  0.86017600  0.67574447  0.69755115     0.15000
N1096       N  0.91795858  0.66589663  0.63301773     0.74100
O1097       O  0.79186411  0.59191125  0.68271198    -0.39300
O1098       O  0.76960132  0.57856479  0.61639619    -0.39300
O1099       O  0.95782749  0.67864457  0.63864144    -0.40000
O1100       O  0.90743668  0.62084655  0.63190738    -0.40000
C1101       C  0.59105380  0.65882791  0.82509238    -0.12300
C1102       C  0.61520540  0.61621585  0.81719766     0.04700
C1103       C  0.61359923  0.57808665  0.84829231    -0.07600
C1104       C  0.58535283  0.58222776  0.88519575    -0.08300
C1105       C  0.55936819  0.62404018  0.89236665    -0.02900
C1106       C  0.56425957  0.66396640  0.86281782     0.03900
N1107       N  0.54271740  0.70985102  0.87020198     0.66400
H1108       H  0.59360640  0.68875470  0.80180698     0.15300
H1109       H  0.58292836  0.55185475  0.90798874     0.15000
N1110       N  0.63906298  0.53445515  0.84239534     0.74100
O1111       O  0.55113016  0.73432284  0.90425442    -0.39300
O1112       O  0.52518461  0.73133563  0.83861554    -0.39300
O1113       O  0.65691251  0.51493255  0.87481356    -0.40000
O1114       O  0.64023293  0.51262421  0.80591718    -0.40000
C1115       C  0.62968296  0.58027102  0.62035420    -0.12300
C1116       C  0.62571418  0.61582924  0.65395265     0.04700
C1117       C  0.59531237  0.65425342  0.64811244    -0.07600
C1118       C  0.56885465  0.65475408  0.61130756    -0.08300
C1119       C  0.57094798  0.61755112  0.57962764    -0.02900
C1120       C  0.60263904  0.58060135  0.58349994     0.03900
N1121       N  0.60860539  0.54399406  0.54999807     0.66400
H1122       H  0.65377369  0.55184228  0.62166624     0.15300
H1123       H  0.54471199  0.68346656  0.60871801     0.15000
N1124       N  0.58884793  0.69175658  0.68049084     0.74100
O1125       O  0.60890280  0.55606581  0.51015489    -0.39300
O1126       O  0.61898098  0.50086942  0.56007836    -0.39300
O1127       O  0.61301806  0.73003453  0.67933712    -0.40000
O1128       O  0.55312467  0.69215581  0.70264303    -0.40000
C1129       C  0.65130291  0.86311722  0.19662906     0.86500
C1130       C  0.68203570  0.90790775  0.20341160    -0.53800
C1131       C  0.70349079  0.90869083  0.24247840     0.09400
C1132       C  0.69122058  0.86419571  0.27156683     0.20300
C1133       C  0.68211140  0.81941596  0.20346824    -0.54500
C1134       C  0.70375591  0.82025041  0.24252363     0.09500
C1135       C  0.61993515  0.86155463  0.23660430    -0.54000
C1136       C  0.64050432  0.86280662  0.27553712     0.10000
H1137       H  0.68712980  0.93496374  0.17792885     0.14600
H1138       H  0.70586114  0.86456886  0.30415478     0.00300
H1139       H  0.68750257  0.79142166  0.17932057     0.14900
H1140       H  0.58410216  0.86005754  0.23440451     0.14700
C1141       C  0.79049391  0.99241770  0.29938819     0.86500
C1142       C  0.76021174  0.78489872  0.29294103    -0.53800
C1143       C  0.73863080  0.78467359  0.25385998     0.09400
C1144       C  0.74973136  0.99104701  0.22492402     0.20300
C1145       C  0.75986856  0.94694860  0.29267733    -0.54500
C1146       C  0.73778348  0.94653624  0.25394535     0.09500
C1147       C  0.82130421  0.99199145  0.25902288    -0.54000
C1148       C  0.80034398  0.99213669  0.22027926     0.10000
H1149       H  0.75452565  0.81130779  0.31882924     0.14600
H1150       H  0.73488783  0.99022605  0.19250273     0.00300
H1151       H  0.75554330  0.91801555  0.31619293     0.14900
H1152       H  0.85715391  0.99121717  0.26088115     0.14700
C1153       C  0.30277895  0.84799856  0.21405964     0.86500
C1154       C  0.27346669  0.80160662  0.21802798    -0.53800
C1155       C  0.24318458  0.80190878  0.25185490     0.09400
C1156       C  0.24631110  0.84897118  0.28087762     0.20300
C1157       C  0.27077994  0.89103480  0.21420571    -0.54500
C1158       C  0.24116296  0.89196362  0.24860919     0.09500
C1159       C  0.32451907  0.85091883  0.25874823    -0.54000
C1160       C  0.29566974  0.85293662  0.29368191     0.10000
H1161       H  0.27460489  0.77172370  0.19445699     0.14600
H1162       H  0.22224234  0.84954329  0.30883153     0.00300
H1163       H  0.27078368  0.91820344  0.18824440     0.14900
H1164       H  0.35988522  0.85130939  0.26368126     0.14700
C1165       C  0.14839800  0.97326154  0.20934971     0.86500
C1166       C  0.17869099  0.76635448  0.21404078    -0.53800
C1167       C  0.20466528  0.76694722  0.25006661     0.09400
C1168       C  0.19741942  0.97181822  0.27933072     0.20300
C1169       C  0.17730585  0.92764728  0.21294299    -0.54500
C1170       C  0.20399140  0.92719060  0.24828359     0.09500
C1171       C  0.12174256  0.97251371  0.25250731    -0.54000
C1172       C  0.14678471  0.97170399  0.28918824     0.10000
H1173       H  0.18229363  0.79371129  0.18832606     0.14600
H1174       H  0.21809380  0.97095481  0.30880896     0.00300
H1175       H  0.17730755  0.89716096  0.19022510     0.14900
H1176       H  0.08577385  0.97215693  0.25407574     0.14700
O1177       O  0.01550725  0.77351759  0.04829686    -0.71800
O1178       O  0.93034280  0.77909266  0.45940251    -0.72000
O1179       O  0.92749993  0.77733072  0.04594536    -0.71900
O1180       O  0.01952304  0.77486860  0.46078452    -0.71900
O1181       O  0.01325884  0.94364354  0.45672345    -0.71900
O1182       O  0.92488818  0.94868275  0.04849169    -0.71900
O1183       O  0.92442940  0.94876987  0.45987759    -0.71800
O1184       O  0.01278331  0.94584494  0.04683038    -0.72000
V1185       V  0.97412886  0.77394969  0.00273497     1.35200
V1186       V  0.96877098  0.94908443  0.00364646     1.35200
C1187       C  0.02713709  0.98520000  0.06403283     0.77400
C1188       C  0.91287545  0.98951628  0.44440693     0.77500
C1189       C  0.91124548  0.98867835  0.06409496     0.77400
C1190       C  0.03297782  0.98205908  0.44288039     0.77300
O1191       O  0.51237088  0.83226154  0.44529310    -0.71800
O1192       O  0.43204446  0.82134772  0.03869891    -0.72000
O1193       O  0.42279491  0.83131600  0.45269555    -0.71900
O1194       O  0.52069181  0.82685352  0.03091537    -0.71900
O1195       O  0.52036695  0.90656627  0.03321625    -0.71900
O1196       O  0.42243358  0.91083226  0.45754148    -0.71900
O1197       O  0.43291802  0.90083795  0.04587900    -0.71800
O1198       O  0.51087979  0.91172760  0.44586255    -0.72000
V1199       V  0.47046511  0.83163985  0.49263388     1.35200
V1200       V  0.47142378  0.90511813  0.99587681     1.35200
C1201       C  0.52616822  0.87277342  0.42941092     0.77400
C1202       C  0.41964776  0.85904285  0.05926653     0.77500
C1203       C  0.40635476  0.87169994  0.44162247     0.77400
C1204       C  0.53658901  0.86681574  0.04576019     0.77300
C1205       C  0.12967994  0.00875847  0.36232652    -0.12300
C1206       C  0.12477814  0.96924409  0.33308972     0.04700
C1207       C  0.09250081  0.93216596  0.34235434    -0.07600
C1208       C  0.06393438  0.93740258  0.37874302    -0.08300
C1209       C  0.06713392  0.97800358  0.40710703    -0.02900
C1210       C  0.10167421  0.01320354  0.39967204     0.03900
N1211       N  0.10940297  0.05274058  0.42992915     0.66400
H1212       H  0.15468455  0.03692711  0.35541390     0.15300
H1213       H  0.03843521  0.90951030  0.38461104     0.15000
N1214       N  0.08780244  0.88946157  0.31471537     0.74100
O1215       O  0.11062014  0.04413291  0.47043641    -0.39300
O1216       O  0.12165315  0.09455034  0.41604028    -0.39300
O1217       O  0.12145672  0.87003201  0.29729203    -0.40000
O1218       O  0.05399176  0.61631549  0.31672879    -0.40000
C1219       C  0.08622459  0.01299045  0.16980598    -0.12300
C1220       C  0.11968510  0.97764452  0.16870882     0.04700
C1221       C  0.12500125  0.94939632  0.12970912    -0.07600
C1222       C  0.09261816  0.95063569  0.09772261    -0.08300
C1223       C  0.05810530  0.98376874  0.10042640    -0.02900
C1224       C  0.05563428  0.01655116  0.13620592     0.03900
N1225       N  0.02163453  0.05248145  0.13979270     0.66400
H1226       H  0.08311365  0.03739194  0.19773000     0.15300
H1227       H  0.09637864  0.92822440  0.06854364     0.15000
N1228       N  0.16528438  0.92513379  0.11850591     0.74100
O1229       O  0.98147722  0.03976988  0.13612461    -0.39300
O1230       O  0.03122478  0.09571484  0.15185241    -0.39300
O1231       O  0.16390112  0.88512602  0.09751569    -0.40000
O1232       O  0.20315115  0.69968027  0.12744066    -0.40000
C1233       C  0.33639743  0.83805697  0.40923827    -0.12300
C1234       C  0.37100049  0.87352352  0.40892775     0.04700
C1235       C  0.37411147  0.90760844  0.37431473    -0.07600
C1236       C  0.34535012  0.90306969  0.33941069    -0.08300
C1237       C  0.31368369  0.86472097  0.33741377    -0.02900
C1238       C  0.30756465  0.83361717  0.37376950     0.03900
N1239       N  0.27502200  0.79489778  0.37348679     0.66400
H1240       H  0.33307802  0.81230818  0.43608855     0.15300
H1241       H  0.35022857  0.92750309  0.31171732     0.15000
N1242       N  0.40978964  0.94292595  0.37108199     0.74100
O1243       O  0.28246744  0.75607681  0.35223949    -0.39300
O1244       O  0.24129437  0.79708436  0.39842404    -0.38100
O1245       O  0.43622929  0.94166701  0.33859458    -0.40000
O1246       O  0.40996887  0.98017791  0.39572212    -0.40000
C1247       C  0.37824123  0.86591606  0.17649438    -0.12300
C1248       C  0.33380390  0.84928195  0.17338433     0.04700
C1249       C  0.31837943  0.83642136  0.13106283    -0.07600
C1250       C  0.34728600  0.83830111  0.09458463    -0.08300
C1251       C  0.39116813  0.85423229  0.09861920    -0.02900
C1252       C  0.40698373  0.86732230  0.13997667     0.03900
N1253       N  0.45278206  0.87976079  0.14572840     0.66400
H1254       H  0.39156147  0.87861515  0.20698347     0.15300
H1255       H  0.33492411  0.82881641  0.06254761     0.15000
N1256       N  0.27320642  0.82255879  0.12399178     0.74100
O1257       O  0.46364572  0.91618492  0.16905964    -0.39300
O1258       O  0.48191177  0.84958969  0.13400050    -0.39300
O1259       O  0.24362948  0.85427572  0.12796982    -0.40000
O1260       O  0.26417546  0.78235159  0.10525187    -0.40000
C1261       C  0.81293675  0.95990836  0.37472687    -0.12300
C1262       C  0.81742264  0.99572100  0.34151781     0.04700
C1263       C  0.85075013  0.03290343  0.34635332    -0.07600
C1264       C  0.88056277  0.03044192  0.38064758    -0.08300
C1265       C  0.87793785  0.99241316  0.41137434    -0.02900
C1266       C  0.84265654  0.95778329  0.40930946     0.03900
N1267       N  0.83573684  0.92099776  0.44249996     0.66400
H1268       H  0.78623862  0.93320044  0.37495885     0.15300
H1269       H  0.90685872  0.05800473  0.38249589     0.15000
N1270       N  0.85674612  0.07190841  0.31526327     0.74100
O1271       O  0.83607872  0.67880432  0.48088578    -0.39300
O1272       O  0.82318035  0.87810296  0.43209827    -0.39300
O1273       O  0.82846494  0.85851240  0.31971279    -0.40000
O1274       O  0.89335814  0.07699369  0.29494715    -0.40000
C1275       C  0.84967766  0.77391404  0.10615037    -0.12300
C1276       C  0.88054859  0.98819054  0.10243405     0.04700
C1277       C  0.88407629  0.95203660  0.13516331    -0.07600
C1278       C  0.85630878  0.95321427  0.17219425    -0.08300
C1279       C  0.82534577  0.99037725  0.17810069    -0.02900
C1280       C  0.82240671  0.77622330  0.14404848     0.03900
N1281       N  0.79158640  0.81541901  0.14862174     0.66400
H1282       H  0.84647406  0.80123335  0.08078651     0.15300
H1283       H  0.86003715  0.92575868  0.19738803     0.15000
N1284       N  0.91784594  0.91594098  0.13287899     0.74100
O1285       O  0.79141855  0.84187969  0.18259421    -0.39300
O1286       O  0.76906966  0.82806218  0.11637813    -0.39300
O1287       O  0.95766948  0.92855645  0.13895367    -0.40000
O1288       O  0.90728841  0.87092501  0.13119053    -0.40000
C1289       C  0.59141179  0.90900712  0.32564696    -0.12300
C1290       C  0.61504510  0.86614519  0.31726360     0.04700
C1291       C  0.61290918  0.82751930  0.34787592    -0.07600
C1292       C  0.58474598  0.83157822  0.38485190    -0.08300
C1293       C  0.55931263  0.87370563  0.39253779    -0.02900
C1294       C  0.56466911  0.91398623  0.36342575     0.03900
N1295       N  0.54368715  0.96009399  0.37133973     0.66400
H1296       H  0.59432332  0.93923968  0.30270298     0.15300
H1297       H  0.58193055  0.80089556  0.40728537     0.15000
N1298       N  0.63773045  0.78349578  0.34142190     0.74100
O1299       O  0.55243949  0.98397611  0.40563194    -0.39300
O1300       O  0.52628536  0.98224269  0.34004674    -0.39300
O1301       O  0.65469218  0.76268396  0.37368482    -0.40000
O1302       O  0.63906351  0.76257619  0.30452747    -0.40000
C1303       C  0.62961263  0.83060570  0.12031027    -0.12300
C1304       C  0.62552968  0.86606500  0.15397747     0.04700
C1305       C  0.59507784  0.90444539  0.14815964    -0.07600
C1306       C  0.56862813  0.90494155  0.11134281    -0.08300
C1307       C  0.57081302  0.86780551  0.07960009    -0.02900
C1308       C  0.60259511  0.83094175  0.08343091     0.03900
N1309       N  0.60869717  0.79444682  0.04985463     0.66400
H1310       H  0.65380505  0.80227662  0.12157766     0.15300
H1311       H  0.54444233  0.93361184  0.10877447     0.15000
N1312       N  0.58859768  0.94193863  0.18054614     0.74100
O1313       O  0.60895627  0.80661847  0.01003669    -0.39300
O1314       O  0.61924827  0.75135231  0.05984642    -0.39300
O1315       O  0.61280864  0.98018788  0.17945556    -0.40000
O1316       O  0.55286175  0.94234742  0.20267653    -0.40000
C1317       C  0.65183227  0.86436080  0.69563842     0.86500
C1318       C  0.68378162  0.90825939  0.70184864    -0.53800
C1319       C  0.70497480  0.90912482  0.74104270     0.09400
C1320       C  0.69130624  0.86561412  0.77077837     0.20300
C1321       C  0.68136571  0.81974729  0.70329802    -0.54500
C1322       C  0.70294859  0.82073049  0.74244597     0.09500
C1323       C  0.62034458  0.86437038  0.73539282    -0.54000
C1324       C  0.64043707  0.86589249  0.77462357     0.10000
H1325       H  0.69001192  0.93451926  0.67590010     0.14600
H1326       H  0.70595875  0.86626900  0.80329989     0.00300
H1327       H  0.68607895  0.79116283  0.67952496     0.14900
H1328       H  0.58454610  0.86332423  0.73264929     0.14700
C1329       C  0.79207079  0.99190311  0.79864678     0.86500
C1330       C  0.75947723  0.78557362  0.79313033    -0.53800
C1331       C  0.73748906  0.78483534  0.75423997     0.09400
C1332       C  0.75182104  0.99130650  0.72392263     0.20300
C1333       C  0.76204174  0.94616477  0.79108002    -0.54500
C1334       C  0.74001611  0.94625327  0.75232896     0.09500
C1335       C  0.82319488  0.99275429  0.75852139    -0.54000
C1336       C  0.80252719  0.99312054  0.71959065     0.10000
H1337       H  0.75443151  0.81269164  0.81856248     0.14600
H1338       H  0.73709634  0.99071400  0.69142908     0.00300
H1339       H  0.75777259  0.91695153  0.81414993     0.14900
H1340       H  0.85903129  0.99244938  0.76069627     0.14700
C1341       C  0.30123772  0.85154989  0.71416554     0.86500
C1342       C  0.27392211  0.80360317  0.71864142    -0.53800
C1343       C  0.24376926  0.80263322  0.75253115     0.09400
C1344       C  0.24586449  0.84942719  0.78175227     0.20300
C1345       C  0.26766879  0.89294307  0.71502469    -0.54500
C1346       C  0.23877476  0.89249208  0.74997928     0.09500
C1347       C  0.32384420  0.85556394  0.75844232    -0.54000
C1348       C  0.29537214  0.85492310  0.79376385     0.10000
H1349       H  0.27609897  0.77344973  0.69545502     0.14600
H1350       H  0.22234580  0.84860221  0.81017025     0.00300
H1351       H  0.26618390  0.92005419  0.68911906     0.14900
H1352       H  0.35941887  0.85789558  0.76239605     0.14700
C1353       C  0.14582483  0.97281525  0.71116369     0.86500
C1354       C  0.17987550  0.76727418  0.71384277    -0.53800
C1355       C  0.20562009  0.76722903  0.75002705     0.09400
C1356       C  0.19557017  0.97245980  0.78059499     0.20300
C1357       C  0.17356009  0.92650315  0.71580932    -0.54500
C1358       C  0.20083804  0.92664655  0.75069959     0.09500
C1359       C  0.11959234  0.97415077  0.75461546    -0.54000
C1360       C  0.14511183  0.97391212  0.79100474     0.10000
H1361       H  0.18299034  0.79557889  0.68897380     0.14600
H1362       H  0.21660402  0.97192595  0.80978976     0.00300
H1363       H  0.17287629  0.89564632  0.69341823     0.14900
H1364       H  0.08365025  0.97406138  0.75669776     0.14700
O1365       O  0.01428156  0.77545897  0.54934621    -0.71800
O1366       O  0.93218565  0.77799276  0.95782976    -0.72000
O1367       O  0.92614687  0.77826182  0.54750128    -0.71900
O1368       O  0.02133342  0.77275629  0.95965202    -0.71900
O1369       O  0.01294689  0.94565231  0.95908171    -0.71900
O1370       O  0.92665966  0.94774520  0.54755768    -0.71900
O1371       O  0.92412911  0.94977004  0.96080176    -0.71800
O1372       O  0.01461266  0.94390017  0.54459656    -0.72000
V1373       V  0.97254973  0.77545715  0.50407630     1.35200
V1374       V  0.96984614  0.94758065  0.50202850     1.35200
C1375       C  0.02873691  0.98314082  0.56220062     0.77400
C1376       C  0.91194591  0.99039886  0.94564567     0.77500
C1377       C  0.91289581  0.98789444  0.56273868     0.77400
C1378       C  0.03201637  0.98432379  0.94495677     0.77300
O1379       O  0.51429115  0.83252651  0.94368557    -0.71800
O1380       O  0.42904786  0.82792425  0.54008278    -0.72000
O1381       O  0.42488786  0.82829837  0.95151373    -0.71900
O1382       O  0.51769042  0.82914716  0.53271634    -0.71900
O1383       O  0.52009718  0.90890274  0.53289140    -0.71900
O1384       O  0.42217971  0.90733627  0.95876474    -0.71900
O1385       O  0.43249438  0.90756816  0.54476637    -0.71800
O1386       O  0.51043766  0.91198296  0.94638078    -0.72000
V1387       V  0.47294593  0.82874072  0.99117057     1.35200
V1388       V  0.47137861  0.90818999  0.49511131     1.35200
C1389       C  0.52629036  0.87396436  0.92864985     0.77400
C1390       C  0.41777605  0.86694396  0.55939943     0.77500
C1391       C  0.40693733  0.86842504  0.94182575     0.77400
C1392       C  0.53491685  0.86884961  0.54651446     0.77300
C1393       C  0.12746514  0.01261902  0.86331482    -0.12300
C1394       C  0.12375353  0.97196163  0.83518077     0.04700
C1395       C  0.09311764  0.93370965  0.84577321    -0.07600
C1396       C  0.06468509  0.93883593  0.88223604    -0.08300
C1397       C  0.06645082  0.98056255  0.90941543    -0.02900
C1398       C  0.09972461  0.01701591  0.90088307     0.03900
N1399       N  0.10655308  0.05771063  0.93020959     0.66400
H1400       H  0.15137826  0.04159578  0.85536731     0.15300
H1401       H  0.04032631  0.90996341  0.88900827     0.15000
N1402       N  0.08988597  0.88990446  0.81935191     0.74100
O1403       O  0.10644751  0.05066874  0.97101056    -0.39300
O1404       O  0.11993916  0.09876612  0.91549678    -0.39300
O1405       O  0.12424736  0.87126722  0.80262858    -0.40000
O1406       O  0.05044871  0.61802082  0.81135042    -0.40000
C1407       C  0.08215754  0.00904295  0.67092899    -0.12300
C1408       C  0.11751319  0.97601292  0.67015000     0.04700
C1409       C  0.12608793  0.94983723  0.63039088    -0.07600
C1410       C  0.09521826  0.95080570  0.59680934    -0.08300
C1411       C  0.05905017  0.98175840  0.59914325    -0.02900
C1412       C  0.05332431  0.01231710  0.63593745     0.03900
N1413       N  0.01760747  0.04590530  0.63879056     0.66400
H1414       H  0.07658788  0.03248360  0.69913016     0.15300
H1415       H  0.10118509  0.92987128  0.56711306     0.15000
N1416       N  0.16754311  0.92689650  0.62092547     0.74100
O1417       O  0.98004297  0.03142837  0.65290749    -0.39300
O1418       O  0.02492219  0.09107643  0.63214998    -0.39300
O1419       O  0.16841941  0.88792850  0.59844570    -0.40000
O1420       O  0.20155440  0.69836274  0.62156550    -0.40000
C1421       C  0.34345087  0.82760499  0.90417284    -0.12300
C1422       C  0.37023878  0.86989367  0.91014992     0.04700
C1423       C  0.36451032  0.91070563  0.88224819    -0.07600
C1424       C  0.33706771  0.90558323  0.84610490    -0.08300
C1425       C  0.31338266  0.86185509  0.83806105    -0.02900
C1426       C  0.31493744  0.82325721  0.86853502     0.03900
N1427       N  0.29080388  0.77809966  0.86199692     0.66400
H1428       H  0.34647513  0.79663182  0.92597640     0.15300
H1429       H  0.33559047  0.93540347  0.82281975     0.15000
N1430       N  0.38758977  0.95670900  0.88859389     0.74100
O1431       O  0.29516048  0.75487942  0.82645316    -0.39300
O1432       O  0.26995556  0.75810803  0.89365379    -0.38100
O1433       O  0.40506807  0.97881717  0.85614831    -0.40000
O1434       O  0.38140809  0.98030414  0.92371090    -0.40000
C1435       C  0.37232537  0.88091070  0.67500581    -0.12300
C1436       C  0.33143362  0.85495827  0.67306430     0.04700
C1437       C  0.31817064  0.83665869  0.63139403    -0.07600
C1438       C  0.34753868  0.83995303  0.59532771    -0.08300
C1439       C  0.38822434  0.86476770  0.59821352    -0.02900
C1440       C  0.40044445  0.88602670  0.63821763     0.03900
N1441       N  0.44214472  0.91125855  0.64247949     0.66400
H1442       H  0.38247173  0.89894702  0.70478089     0.15300
H1443       H  0.33767380  0.82484484  0.56407301     0.15000
N1444       N  0.27476314  0.81625803  0.62416273     0.74100
O1445       O  0.44776937  0.95372045  0.62664786    -0.39300
O1446       O  0.47092800  0.89418064  0.66722984    -0.39300
O1447       O  0.24097851  0.84022985  0.63502114    -0.40000
O1448       O  0.27015630  0.77842857  0.60057663    -0.40000
C1449       C  0.81476765  0.95801461  0.87339131    -0.12300
C1450       C  0.81847957  0.99491035  0.84106125     0.04700
C1451       C  0.85030146  0.03337091  0.84723054    -0.07600
C1452       C  0.87936464  0.03158858  0.88217709    -0.08300
C1453       C  0.87751789  0.99274685  0.91211853    -0.02900
C1454       C  0.84377615  0.95649799  0.90855091     0.03900
N1455       N  0.83768206  0.91852213  0.94077145     0.66400
H1456       H  0.78940117  0.93000164  0.87255854     0.15300
H1457       H  0.90452268  0.06026258  0.88507895     0.15000
N1458       N  0.85545609  0.07325880  0.81696052     0.74100
O1459       O  0.83625456  0.68251335  0.98257364    -0.39300
O1460       O  0.82806071  0.87516532  0.92908554    -0.39300
O1461       O  0.82999840  0.85681459  0.81586611    -0.40000
O1462       O  0.89164908  0.07907258  0.79605000    -0.40000
C1463       C  0.84836467  0.77423134  0.60747040    -0.12300
C1464       C  0.88219953  0.98782904  0.60114707     0.04700
C1465       C  0.88631888  0.95259141  0.63453008    -0.07600
C1466       C  0.85937253  0.95476722  0.67207845    -0.08300
C1467       C  0.82789476  0.99149347  0.67752369    -0.02900
C1468       C  0.82084668  0.77593041  0.64516191     0.03900
N1469       N  0.79046182  0.81544131  0.65031207     0.66400
H1470       H  0.84544439  0.80206296  0.58250857     0.15300
H1471       H  0.86353517  0.92780318  0.69760587     0.15000
N1472       N  0.91957270  0.91599890  0.63202644     0.74100
O1473       O  0.79133935  0.84199382  0.68420891    -0.39300
O1474       O  0.76759144  0.82845402  0.61844215    -0.39300
O1475       O  0.95610653  0.92337424  0.65042086    -0.40000
O1476       O  0.91006669  0.87386247  0.61727226    -0.40000
C1477       C  0.57908788  0.90324296  0.81784427    -0.12300
C1478       C  0.61420365  0.87012176  0.81621356     0.04700
C1479       C  0.62215052  0.84108980  0.85332550    -0.07600
C1480       C  0.59435114  0.84522599  0.89052478    -0.08300
C1481       C  0.55824925  0.87698917  0.89137282    -0.02900
C1482       C  0.55106981  0.90691193  0.85474602     0.03900
N1483       N  0.51368713  0.93833490  0.85294950     0.66400
H1484       H  0.57295250  0.92622858  0.78984338     0.15300
H1485       H  0.59979200  0.82176766  0.91836980     0.15000
N1486       N  0.65576952  0.80465846  0.85279506     0.74100
O1487       O  0.51099865  0.97478112  0.87839728    -0.39300
O1488       O  0.48813393  0.93520398  0.82088438    -0.39300
O1489       O  0.67993533  0.79966440  0.88559915    -0.40000
O1490       O  0.65632972  0.77235101  0.82310733    -0.40000
C1491       C  0.62784968  0.83072989  0.62046728    -0.12300
C1492       C  0.62579859  0.86748030  0.65315053     0.04700
C1493       C  0.59628992  0.90679427  0.64705845    -0.07600
C1494       C  0.56900262  0.90717655  0.61085619    -0.08300
C1495       C  0.56945561  0.86916675  0.57997783    -0.02900
C1496       C  0.60002507  0.83104135  0.58417239     0.03900
N1497       N  0.60387052  0.79295626  0.55169363     0.66400
H1498       H  0.65083822  0.80121226  0.62226228     0.15300
H1499       H  0.54567264  0.93667894  0.60803834     0.15000
N1500       N  0.59115986  0.94514605  0.67886749     0.74100
O1501       O  0.60402240  0.80353750  0.51151124    -0.39300
O1502       O  0.61245841  0.74967142  0.56292988    -0.39300
O1503       O  0.61747168  0.98164396  0.67793909    -0.40000
O1504       O  0.55486675  0.94858141  0.69976276    -0.40000
loop_ 
_geom_bond_atom_site_label_1 
_geom_bond_atom_site_label_2 
_geom_bond_distance 
_geom_bond_site_symmetry_2 
_ccdc_geom_bond_type 
C1            C2   1.535       .  S
C1            C7   1.527       .  S
C1            C5   1.543       .  S
C1          C176   1.536       .  S
C2            H9   1.081       .  S
C2            C3   1.371       .  D
C3            C4   1.540       .  S
C3           C18   1.494       .  S
C4            C8   1.539       .  S
C4            C6   1.538       .  S
C4           H10   1.097       .  S
C5           H11   1.073       .  S
C5            C6   1.375       .  D
C6           C15   1.495       .  S
C7           H12   1.086       .  S
C7            C8   1.356       .  D
C8          C162   1.489       .  S
C13          C19   1.529       .  S
C13          C17   1.546       .  S
C13         C390   1.537       .  S
C13         C134   1.538       .  S
C14        C1141   1.538   1_545  S
C14          H21   1.081       .  S
C14          C15   1.374       .  D
C15        C1144   1.537   1_545  S
C16          C20   1.535       .  S
C16          C18   1.537       .  S
C16         C391   1.538       .  S
C16          H22   1.097       .  S
C17          H23   1.068       .  S
C17          C18   1.371       .  D
C19          H24   1.086       .  S
C19          C20   1.356       .  D
C20         C151   1.484       .  S
C25          C26   1.535       .  S
C25          C31   1.532       .  S
C25          C29   1.532       .  S
C25         C120   1.539       .  S
C26          H33   1.085       .  S
C26          C27   1.365       .  D
C27          C28   1.554       .  S
C27          C39   1.490       .  S
C28          C32   1.552       .  S
C28          C30   1.547       .  S
C28          H34   1.111       .  S
C29          H35   1.087       .  S
C29          C30   1.365       .  D
C30          C42   1.491       .  S
C31          H36   1.085       .  S
C31          C32   1.366       .  D
C32         C109   1.480       .  S
C37          C43   1.533       .  S
C37          C41   1.537       .  S
C37         C414   1.531       .  S
C37          C92   1.537       .  S
C38        C1165   1.529   1_545  S
C38          H45   1.086       .  S
C38          C39   1.366       .  D
C39        C1168   1.549   1_545  S
C40          C44   1.552       .  S
C40          C42   1.553       .  S
C40         C415   1.548       .  S
C40          H46   1.107       .  S
C41          H47   1.082       .  S
C41          C42   1.362       .  D
C43          H48   1.086       .  S
C43          C44   1.367       .  D
C44          C78   1.485       .  S
O49          V57   1.892   1_455  S
O49        C1187   1.261   1_545  A
O50         V245   1.893       .  S
O50        C1188   1.263   1_545  A
O51          V57   1.913       .  S
O51        C1189   1.268   1_545  A
O52         V245   1.921   1_455  S
O52        C1190   1.270   1_545  A
O53         V246   1.891   1_455  S
O53          C62   1.263       .  A
O54          V58   1.887       .  S
O54          C61   1.261       .  A
O55         V246   1.901       .  S
O55          C60   1.266       .  A
O56          V58   1.901   1_455  S
O56          C59   1.265       .  A
V57         O238   1.893   1_554  S
V57         O240   1.920   1_654  S
V57        V1186   2.086   1_545  T
V58         O241   1.892   1_654  S
V58         O243   1.903   1_554  S
V58         V433   2.085       .  T
C59         O425   1.262       .  A
C59          C95   1.471       .  S
C60         O426   1.263       .  A
C60         C137   1.479       .  S
C61         O427   1.268       .  A
C61         C148   1.481       .  S
C62         O428   1.270       .  A
C62          C81   1.493       .  S
O63          V71   1.897       .  S
O63          C73   1.263       .  A
O64         V259   1.897   1_554  S
O64          C74   1.263       .  A
O65          V71   1.911       .  S
O65          C75   1.268       .  A
O66         V259   1.903   1_554  S
O66          C76   1.265       .  A
O67          V72   1.890   1_554  S
O67          C76   1.263       .  A
O68         V260   1.892       .  S
O68          C75   1.261       .  A
O69          V72   1.900   1_554  S
O69          C74   1.264       .  A
O70         V260   1.905       .  S
O70          C73   1.265       .  A
V71         O252   1.896       .  S
V71         O254   1.907       .  S
V71         V260   2.086       .  T
V72         O256   1.894       .  S
V72         O258   1.903       .  S
V72         V259   2.085       .  T
C73         C165   1.479       .  S
C74         C123   1.470       .  S
C75         C106   1.489       .  S
C76         C179   1.477       .  S
C77          C78   1.404       .  A
C77          C82   1.413       .  A
C77          H84   1.084       .  S
C78          C79   1.413       .  A
C79          C80   1.401       .  A
C79          N86   1.441       .  S
C80          C81   1.406       .  A
C80          H85   1.083       .  S
C81          C82   1.419       .  A
C82          N83   1.437       .  S
N83          O87   1.263       .  A
N83          O88   1.262       .  A
N86         O466   1.263       .  A
N86          O89   1.262       .  A
O90        N1214   1.263       .  A
C91          C92   1.410       .  A
C91          C96   1.399       .  A
C91          H98   1.083       .  S
C92          C93   1.428       .  A
C93          C94   1.402       .  A
C93         N100   1.434       .  S
C94          C95   1.394       .  A
C94          H99   1.084       .  S
C95          C96   1.407       .  A
C96          N97   1.430       .  S
N97         O101   1.262   1_455  A
N97         O102   1.262       .  A
N100        O480   1.262       .  A
N100        O103   1.263       .  A
O104       N1228   1.263       .  A
C105        C106   1.408       .  A
C105        C110   1.407       .  A
C105        H112   1.083       .  S
C106        C107   1.419       .  A
C107        C108   1.400       .  A
C107        N114   1.436       .  S
C108        C109   1.400       .  A
C108        H113   1.084       .  S
C109        C110   1.409       .  A
C110        N111   1.433       .  S
N111        O115   1.261       .  A
N111        O116   1.262       .  A
N114        O118   1.262       .  A
N114        O117   1.263       .  A
C119        C120   1.413       .  A
C119        C124   1.401       .  A
C119        H126   1.080       .  S
C120        C121   1.429       .  A
C121        C122   1.402       .  A
C121        N128   1.435       .  S
C122        C123   1.395       .  A
C122        H127   1.084       .  S
C123        C124   1.405       .  A
C124        N125   1.431       .  S
N125        O129   1.262       .  A
N125        O130   1.262       .  A
N128        O132   1.263       .  A
N128        O131   1.261       .  A
C133        C134   1.413       .  A
C133        C138   1.403       .  A
C133        H140   1.070       .  S
C134        C135   1.422       .  A
C135        C136   1.399       .  A
C135        N142   1.433       .  S
C136        C137   1.401       .  A
C136        H141   1.083       .  S
C137        C138   1.410       .  A
C138        N139   1.437       .  S
N139        O519   1.263       .  A
N139        O144   1.262       .  A
N142        O146   1.262       .  A
N142        O521   1.261       .  A
O143       N1267   1.263       .  A
O145       N1270   1.261       .  A
C147        C152   1.408       .  A
C147       C1276   1.404   1_545  A
C147        H154   1.084       .  S
C148        C149   1.412       .  A
C148        C523   1.405       .  A
C149        C150   1.395       .  A
C149        N156   1.430       .  S
C150        C151   1.401       .  A
C150        H155   1.084       .  S
C151        C528   1.415       .  A
C152       C1279   1.414   1_545  A
C152        N153   1.435       .  S
N153        O157   1.262       .  A
N153        O158   1.262       .  A
N156        O160   1.261       .  A
N156        O159   1.262       .  A
C161        C162   1.407       .  A
C161        C166   1.400       .  A
C161        H168   1.084       .  S
C162        C163   1.413       .  A
C163        C164   1.405       .  A
C163        N170   1.434       .  S
C164        C165   1.405       .  A
C164        H169   1.083       .  S
C165        C166   1.410       .  A
C166        N167   1.433       .  S
N167        O171   1.262       .  A
N167        O172   1.262       .  A
N170        O174   1.262       .  A
N170        O173   1.262       .  A
C175        C176   1.413       .  A
C175        C180   1.406       .  A
C175        H182   1.075       .  S
C176        C177   1.422       .  A
C177        C178   1.394       .  A
C177        N184   1.433       .  S
C178        C179   1.399       .  A
C178        H183   1.084       .  S
C179        C180   1.411       .  A
C180        N181   1.438       .  S
N181        O185   1.263       .  A
N181        O186   1.262   1_545  A
N184        O188   1.262       .  A
N184        O187   1.260       .  A
C189        C190   1.534       .  S
C189        C195   1.530       .  S
C189        C193   1.543       .  S
C189        C364   1.536       .  S
C190        H197   1.081       .  S
C190        C191   1.371       .  D
C191        C192   1.540       .  S
C191        C206   1.493       .  S
C192        C196   1.534       .  S
C192        C194   1.537       .  S
C192        H198   1.099       .  S
C193        H199   1.072       .  S
C193        C194   1.373       .  D
C194        C203   1.493       .  S
C195        H200   1.086       .  S
C195        C196   1.355       .  D
C196        C350   1.479       .  S
C201        C578   1.538       .  S
C201        C207   1.530       .  S
C201        C205   1.546       .  S
C201        C322   1.540       .  S
C202       C1329   1.537   1_545  S
C202        H209   1.081       .  S
C202        C203   1.373       .  D
C203       C1332   1.538   1_545  S
C204        C579   1.537       .  S
C204        C208   1.532       .  S
C204        C206   1.537       .  S
C204        H210   1.097       .  S
C205        H211   1.073       .  S
C205        C206   1.372       .  D
C207        H212   1.086       .  S
C207        C208   1.355       .  D
C208        C339   1.482       .  S
C213        C214   1.532       .  S
C213        C219   1.530       .  S
C213        C217   1.535       .  S
C213        C308   1.541       .  S
C214        H221   1.086       .  S
C214        C215   1.366       .  D
C215        C216   1.559       .  S
C215        C227   1.491       .  S
C216        C220   1.551       .  S
C216        C218   1.546       .  S
C216        H222   1.110       .  S
C217        H223   1.087       .  S
C217        C218   1.367       .  D
C218        C230   1.492       .  S
C219        H224   1.082       .  S
C219        C220   1.366       .  D
C220        C297   1.486       .  S
C225        C602   1.529       .  S
C225        C231   1.531       .  S
C225        C229   1.539       .  S
C225        C280   1.537       .  S
C226       C1353   1.531   1_545  S
C226        H233   1.087       .  S
C226        C227   1.366       .  D
C227       C1356   1.548   1_545  S
C228        C603   1.549       .  S
C228        C232   1.553       .  S
C228        C230   1.553       .  S
C228        H234   1.108       .  S
C229        H235   1.081       .  S
C229        C230   1.362       .  D
C231        H236   1.087       .  S
C231        C232   1.367       .  D
C232        C266   1.486       .  S
O237        V245   1.891   1_455  S
O237       C1375   1.261   1_545  A
O238       C1376   1.263   1_545  A
O239        V245   1.914       .  S
O239       C1377   1.268   1_545  A
O240       C1378   1.270   1_545  A
O241        C250   1.263       .  A
O242        V246   1.887       .  S
O242        C249   1.261       .  A
O243        C248   1.266       .  A
O244        V246   1.898   1_455  S
O244        C247   1.265       .  A
V245       V1374   2.085   1_545  T
V246        V621   2.086       .  T
C247        O613   1.261       .  A
C247        C283   1.470       .  S
C248        O614   1.263       .  A
C248        C325   1.480       .  S
C249        O615   1.268       .  A
C249        C336   1.479       .  S
C250        O616   1.270       .  A
C250        C269   1.493       .  S
O251        V259   1.902       .  S
O251        C261   1.266       .  A
O252        C262   1.261       .  A
O253        V259   1.908       .  S
O253        C263   1.266       .  A
O254        C264   1.267       .  A
O255        V260   1.887       .  S
O255        C264   1.262       .  A
O256        C263   1.262       .  A
O257        V260   1.903       .  S
O257        C262   1.265       .  A
O258        C261   1.264       .  A
C261        C353   1.491       .  S
C262        C311   1.469       .  S
C263        C294   1.480       .  S
C264        C367   1.478       .  S
C265        C266   1.404       .  A
C265        C270   1.413       .  A
C265        H272   1.084       .  S
C266        C267   1.415       .  A
C267        C268   1.402       .  A
C267        N274   1.442       .  S
C268        C269   1.406       .  A
C268        H273   1.083       .  S
C269        C270   1.418       .  A
C270        N271   1.436       .  S
N271        O275   1.263       .  A
N271        O276   1.262       .  A
N274        O654   1.263       .  A
N274        O277   1.263       .  A
O278       N1402   1.263       .  A
C279        C280   1.410       .  A
C279        C284   1.402       .  A
C279        H286   1.084       .  S
C280        C281   1.425       .  A
C281        C282   1.399       .  A
C281        N288   1.431       .  S
C282        C283   1.394       .  A
C282        H287   1.084       .  S
C283        C284   1.411       .  A
C284        N285   1.435       .  S
N285        O289   1.262   1_455  A
N285        O290   1.262       .  A
N288        O668   1.263       .  A
N288        O291   1.263       .  A
O292       N1416   1.262       .  A
C293        C294   1.409       .  A
C293        C298   1.409       .  A
C293        H300   1.083       .  S
C294        C295   1.411       .  A
C295        C296   1.394       .  A
C295        N302   1.432       .  S
C296        C297   1.404       .  A
C296        H301   1.084       .  S
C297        C298   1.407       .  A
C298        N299   1.427       .  S
N299        O303   1.261       .  A
N299        O304   1.262       .  A
N302        O306   1.262       .  A
N302        O305   1.262       .  A
C307        C308   1.413       .  A
C307        C312   1.400       .  A
C307        H314   1.076       .  S
C308        C309   1.425       .  A
C309        C310   1.402       .  A
C309        N316   1.429       .  S
C310        C311   1.394       .  A
C310        H315   1.084       .  S
C311        C312   1.404       .  A
C312        N313   1.432       .  S
N313        O317   1.262       .  A
N313        O318   1.262       .  A
N316        O320   1.262       .  A
N316        O319   1.259       .  A
C321        C322   1.413       .  A
C321        C326   1.404       .  A
C321        H328   1.075       .  S
C322        C323   1.423       .  A
C323        C324   1.400       .  A
C323        N330   1.434       .  S
C324        C325   1.401       .  A
C324        H329   1.084       .  S
C325        C326   1.411       .  A
C326        N327   1.438       .  S
N327        O707   1.263       .  A
N327        O332   1.263       .  A
N330        O334   1.262       .  A
N330        O709   1.261       .  A
O331       N1455   1.263       .  A
O333       N1458   1.261       .  A
C335       C1464   1.405   1_545  A
C335        C340   1.409       .  A
C335        H342   1.084       .  S
C336        C711   1.404       .  A
C336        C337   1.413       .  A
C337        C338   1.395       .  A
C337        N344   1.432       .  S
C338        C339   1.401       .  A
C338        H343   1.084       .  S
C339        C716   1.414       .  A
C340       C1467   1.415   1_545  A
C340        N341   1.435       .  S
N341        O345   1.262       .  A
N341        O346   1.262       .  A
N344        O348   1.262       .  A
N344        O347   1.262       .  A
C349        C350   1.401       .  A
C349        C354   1.403       .  A
C349        H356   1.084       .  S
C350        C351   1.410       .  A
C351        C352   1.406       .  A
C351        N358   1.437       .  S
C352        C353   1.410       .  A
C352        H357   1.084       .  S
C353        C354   1.419       .  A
C354        N355   1.436       .  S
N355        O359   1.262       .  A
N355        O360   1.263       .  A
N358        O362   1.262       .  A
N358        O361   1.263       .  A
C363        C364   1.414       .  A
C363        C368   1.406       .  A
C363        H370   1.075       .  S
C364        C365   1.421       .  A
C365        C366   1.395       .  A
C365        N372   1.433       .  S
C366        C367   1.401       .  A
C366        H371   1.084       .  S
C367        C368   1.410       .  A
C368        N369   1.438       .  S
N369        O373   1.263       .  A
N369        O374   1.263       .  A
N372        O376   1.262       .  A
N372        O375   1.261       .  A
C377        C378   1.534       .  S
C377        C383   1.531       .  S
C377        C381   1.543       .  S
C377        C552   1.536       .  S
C378        H385   1.081       .  S
C378        C379   1.371       .  D
C379        C380   1.540       .  S
C379        C394   1.493       .  S
C380        C384   1.534       .  S
C380        C382   1.537       .  S
C380        H386   1.099       .  S
C381        H387   1.072       .  S
C381        C382   1.374       .  D
C382        C391   1.493       .  S
C383        H388   1.086       .  S
C383        C384   1.355       .  D
C384        C538   1.479       .  S
C389        C766   1.538       .  S
C389        C395   1.530       .  S
C389        C393   1.547       .  S
C389        C510   1.540       .  S
C390        H397   1.081       .  S
C390        C391   1.373       .  D
C392        C767   1.537       .  S
C392        C396   1.532       .  S
C392        C394   1.537       .  S
C392        H398   1.097       .  S
C393        H399   1.073       .  S
C393        C394   1.372       .  D
C395        H400   1.086       .  S
C395        C396   1.355       .  D
C396        C527   1.481       .  S
C401        C402   1.532       .  S
C401        C407   1.530       .  S
C401        C405   1.535       .  S
C401        C496   1.541       .  S
C402        H409   1.086       .  S
C402        C403   1.366       .  D
C403        C404   1.559       .  S
C403        C415   1.491       .  S
C404        C408   1.551       .  S
C404        C406   1.546       .  S
C404        H410   1.110       .  S
C405        H411   1.087       .  S
C405        C406   1.367       .  D
C406        C418   1.493       .  S
C407        H412   1.082       .  S
C407        C408   1.365       .  D
C408        C485   1.486       .  S
C413        C790   1.529       .  S
C413        C419   1.531       .  S
C413        C417   1.539       .  S
C413        C468   1.537       .  S
C414        H421   1.087       .  S
C414        C415   1.366       .  D
C416        C791   1.549       .  S
C416        C420   1.553       .  S
C416        C418   1.553       .  S
C416        H422   1.108       .  S
C417        H423   1.081       .  S
C417        C418   1.362       .  D
C419        H424   1.087       .  S
C419        C420   1.367       .  D
C420        C454   1.486       .  S
O425        V433   1.892   1_455  S
O426        V621   1.893       .  S
O427        V433   1.914       .  S
O428        V621   1.920   1_455  S
O429        V622   1.892   1_455  S
O429        C438   1.263       .  A
O430        V434   1.886       .  S
O430        C437   1.261       .  A
O431        V622   1.903       .  S
O431        C436   1.266       .  A
O432        V434   1.897   1_455  S
O432        C435   1.265       .  A
V433        O614   1.893   1_554  S
V433        O616   1.921   1_654  S
V434        O617   1.890   1_654  S
V434        O619   1.901   1_554  S
V434        V809   2.086       .  T
C435        O801   1.261       .  A
C435        C471   1.470       .  S
C436        O802   1.263       .  A
C436        C513   1.480       .  S
C437        O803   1.268       .  A
C437        C524   1.479       .  S
C438        O804   1.270       .  A
C438        C457   1.493       .  S
O439        V447   1.902       .  S
O439        C449   1.266       .  A
O440        V635   1.896   1_554  S
O440        C450   1.261       .  A
O441        V447   1.908       .  S
O441        C451   1.266       .  A
O442        V635   1.908   1_554  S
O442        C452   1.267       .  A
O443        V448   1.887   1_554  S
O443        C452   1.262       .  A
O444        V636   1.894       .  S
O444        C451   1.263       .  A
O445        V448   1.904   1_554  S
O445        C450   1.265       .  A
O446        V636   1.903       .  S
O446        C449   1.264       .  A
V447        O628   1.897       .  S
V447        O630   1.903       .  S
V447        V636   2.085       .  T
V448        O632   1.892       .  S
V448        O634   1.905       .  S
V448        V635   2.086       .  T
C449        C541   1.492       .  S
C450        C499   1.469       .  S
C451        C482   1.481       .  S
C452        C555   1.478       .  S
C453        C454   1.404       .  A
C453        C458   1.413       .  A
C453        H460   1.084       .  S
C454        C455   1.415       .  A
C455        C456   1.402       .  A
C455        N462   1.442       .  S
C456        C457   1.406       .  A
C456        H461   1.083       .  S
C457        C458   1.418       .  A
C458        N459   1.436       .  S
N459        O463   1.263       .  A
N459        O464   1.262       .  A
N462        O842   1.263       .  A
N462        O465   1.263       .  A
C467        C468   1.410       .  A
C467        C472   1.402       .  A
C467        H474   1.084       .  S
C468        C469   1.424       .  A
C469        C470   1.399       .  A
C469        N476   1.431       .  S
C470        C471   1.393       .  A
C470        H475   1.084       .  S
C471        C472   1.411       .  A
C472        N473   1.435       .  S
N473        O477   1.262   1_455  A
N473        O478   1.262       .  A
N476        O856   1.263       .  A
N476        O479   1.263       .  A
C481        C482   1.409       .  A
C481        C486   1.409       .  A
C481        H488   1.083       .  S
C482        C483   1.411       .  A
C483        C484   1.394       .  A
C483        N490   1.432       .  S
C484        C485   1.404       .  A
C484        H489   1.084       .  S
C485        C486   1.407       .  A
C486        N487   1.427       .  S
N487        O491   1.261       .  A
N487        O492   1.262       .  A
N490        O494   1.262       .  A
N490        O493   1.262       .  A
C495        C496   1.413       .  A
C495        C500   1.400       .  A
C495        H502   1.076       .  S
C496        C497   1.424       .  A
C497        C498   1.402       .  A
C497        N504   1.428       .  S
C498        C499   1.394       .  A
C498        H503   1.084       .  S
C499        C500   1.404       .  A
C500        N501   1.432       .  S
N501        O505   1.262       .  A
N501        O506   1.262       .  A
N504        O508   1.262       .  A
N504        O507   1.259       .  A
C509        C510   1.413       .  A
C509        C514   1.404       .  A
C509        H516   1.075       .  S
C510        C511   1.423       .  A
C511        C512   1.400       .  A
C511        N518   1.434       .  S
C512        C513   1.400       .  A
C512        H517   1.084       .  S
C513        C514   1.411       .  A
C514        N515   1.437       .  S
N515        O895   1.263       .  A
N515        O520   1.263       .  A
N518        O522   1.262       .  A
N518        O897   1.261       .  A
C523        C528   1.409       .  A
C523        H530   1.084       .  S
C524        C899   1.404       .  A
C524        C525   1.414       .  A
C525        C526   1.395       .  A
C525        N532   1.432       .  S
C526        C527   1.401       .  A
C526        H531   1.084       .  S
C527        C904   1.414       .  A
C528        N529   1.435       .  S
N529        O533   1.262       .  A
N529        O534   1.262       .  A
N532        O536   1.262       .  A
N532        O535   1.262       .  A
C537        C538   1.401       .  A
C537        C542   1.403       .  A
C537        H544   1.084       .  S
C538        C539   1.410       .  A
C539        C540   1.406       .  A
C539        N546   1.438       .  S
C540        C541   1.410       .  A
C540        H545   1.084       .  S
C541        C542   1.419       .  A
C542        N543   1.435       .  S
N543        O547   1.262       .  A
N543        O548   1.263       .  A
N546        O550   1.262       .  A
N546        O549   1.263       .  A
C551        C552   1.414       .  A
C551        C556   1.406       .  A
C551        H558   1.075       .  S
C552        C553   1.421       .  A
C553        C554   1.395       .  A
C553        N560   1.433       .  S
C554        C555   1.401       .  A
C554        H559   1.084       .  S
C555        C556   1.410       .  A
C556        N557   1.438       .  S
N557        O561   1.263       .  A
N557        O562   1.263       .  A
N560        O564   1.262       .  A
N560        O563   1.261       .  A
C565        C566   1.535       .  S
C565        C571   1.527       .  S
C565        C569   1.543       .  S
C565        C740   1.537       .  S
C566        H573   1.081       .  S
C566        C567   1.371       .  D
C567        C568   1.540       .  S
C567        C582   1.494       .  S
C568        C572   1.539       .  S
C568        C570   1.538       .  S
C568        H574   1.097       .  S
C569        H575   1.073       .  S
C569        C570   1.375       .  D
C570        C579   1.495       .  S
C571        H576   1.086       .  S
C571        C572   1.356       .  D
C572        C726   1.489       .  S
C577        C954   1.537       .  S
C577        C583   1.530       .  S
C577        C581   1.546       .  S
C577        C698   1.538       .  S
C578        H585   1.081       .  S
C578        C579   1.374       .  D
C580        C955   1.538       .  S
C580        C584   1.535       .  S
C580        C582   1.537       .  S
C580        H586   1.097       .  S
C581        H587   1.069       .  S
C581        C582   1.371       .  D
C583        H588   1.086       .  S
C583        C584   1.356       .  D
C584        C715   1.484       .  S
C589        C590   1.535       .  S
C589        C595   1.532       .  S
C589        C593   1.532       .  S
C589        C684   1.539       .  S
C590        H597   1.085       .  S
C590        C591   1.365       .  D
C591        C592   1.555       .  S
C591        C603   1.491       .  S
C592        C596   1.552       .  S
C592        C594   1.547       .  S
C592        H598   1.111       .  S
C593        H599   1.087       .  S
C593        C594   1.365       .  D
C594        C606   1.491       .  S
C595        H600   1.085       .  S
C595        C596   1.366       .  D
C596        C673   1.480       .  S
C601        C978   1.531       .  S
C601        C607   1.533       .  S
C601        C605   1.537       .  S
C601        C656   1.537       .  S
C602        H609   1.086       .  S
C602        C603   1.366       .  D
C604        C979   1.548       .  S
C604        C608   1.552       .  S
C604        C606   1.553       .  S
C604        H610   1.107       .  S
C605        H611   1.082       .  S
C605        C606   1.362       .  D
C607        H612   1.086       .  S
C607        C608   1.367       .  D
C608        C642   1.485       .  S
O613        V621   1.892   1_455  S
O615        V621   1.913       .  S
O617        C626   1.263       .  A
O618        V622   1.887       .  S
O618        C625   1.261       .  A
O619        C624   1.266       .  A
O620        V622   1.901   1_455  S
O620        C623   1.265       .  A
V622        V997   2.085       .  T
C623        O989   1.262       .  A
C623        C659   1.470       .  S
C624        O990   1.263       .  A
C624        C701   1.478       .  S
C625        O991   1.268       .  A
C625        C712   1.481       .  S
C626        O992   1.270       .  A
C626        C645   1.493       .  S
O627        V635   1.896       .  S
O627        C637   1.263       .  A
O628        C638   1.263       .  A
O629        V635   1.911       .  S
O629        C639   1.269       .  A
O630        C640   1.266       .  A
O631        V636   1.890       .  S
O631        C640   1.263       .  A
O632        C639   1.261       .  A
O633        V636   1.900       .  S
O633        C638   1.264       .  A
O634        C637   1.265       .  A
C637        C729   1.479       .  S
C638        C687   1.470       .  S
C639        C670   1.489       .  S
C640        C743   1.477       .  S
C641        C642   1.404       .  A
C641        C646   1.414       .  A
C641        H648   1.084       .  S
C642        C643   1.413       .  A
C643        C644   1.401       .  A
C643        N650   1.441       .  S
C644        C645   1.406       .  A
C644        H649   1.083       .  S
C645        C646   1.419       .  A
C646        N647   1.438       .  S
N647        O651   1.263       .  A
N647        O652   1.262       .  A
N650       O1030   1.263       .  A
N650        O653   1.262       .  A
C655        C656   1.410       .  A
C655        C660   1.398       .  A
C655        H662   1.083       .  S
C656        C657   1.428       .  A
C657        C658   1.402       .  A
C657        N664   1.435       .  S
C658        C659   1.394       .  A
C658        H663   1.084       .  S
C659        C660   1.407       .  A
C660        N661   1.430       .  S
N661        O665   1.262   1_455  A
N661        O666   1.262       .  A
N664       O1044   1.262       .  A
N664        O667   1.263       .  A
C669        C670   1.408       .  A
C669        C674   1.407       .  A
C669        H676   1.083       .  S
C670        C671   1.419       .  A
C671        C672   1.401       .  A
C671        N678   1.436       .  S
C672        C673   1.401       .  A
C672        H677   1.084       .  S
C673        C674   1.409       .  A
C674        N675   1.433       .  S
N675        O679   1.261       .  A
N675        O680   1.262       .  A
N678        O682   1.262       .  A
N678        O681   1.263       .  A
C683        C684   1.413       .  A
C683        C688   1.400       .  A
C683        H690   1.080       .  S
C684        C685   1.429       .  A
C685        C686   1.402       .  A
C685        N692   1.435       .  S
C686        C687   1.395       .  A
C686        H691   1.084       .  S
C687        C688   1.405       .  A
C688        N689   1.431       .  S
N689        O693   1.262       .  A
N689        O694   1.262       .  A
N692        O696   1.263       .  A
N692        O695   1.261       .  A
C697        C698   1.413       .  A
C697        C702   1.403       .  A
C697        H704   1.072       .  S
C698        C699   1.422       .  A
C699        C700   1.399       .  A
C699        N706   1.433       .  S
C700        C701   1.401       .  A
C700        H705   1.084       .  S
C701        C702   1.410       .  A
C702        N703   1.437       .  S
N703       O1083   1.263       .  A
N703        O708   1.263       .  A
N706        O710   1.262       .  A
N706       O1085   1.261       .  A
C711        C716   1.408       .  A
C711        H718   1.084       .  S
C712       C1087   1.405       .  A
C712        C713   1.413       .  A
C713        C714   1.395       .  A
C713        N720   1.430       .  S
C714        C715   1.401       .  A
C714        H719   1.084       .  S
C715       C1092   1.415       .  A
C716        N717   1.435       .  S
N717        O721   1.262       .  A
N717        O722   1.262       .  A
N720        O724   1.261       .  A
N720        O723   1.262       .  A
C725        C726   1.406       .  A
C725        C730   1.400       .  A
C725        H732   1.084       .  S
C726        C727   1.413       .  A
C727        C728   1.405       .  A
C727        N734   1.434       .  S
C728        C729   1.406       .  A
C728        H733   1.083       .  S
C729        C730   1.410       .  A
C730        N731   1.433       .  S
N731        O735   1.262       .  A
N731        O736   1.262       .  A
N734        O738   1.262       .  A
N734        O737   1.262       .  A
C739        C740   1.413       .  A
C739        C744   1.407       .  A
C739        H746   1.075       .  S
C740        C741   1.422       .  A
C741        C742   1.394       .  A
C741        N748   1.433       .  S
C742        C743   1.399       .  A
C742        H747   1.084       .  S
C743        C744   1.411       .  A
C744        N745   1.438       .  S
N745        O749   1.263       .  A
N745        O750   1.262       .  A
N748        O752   1.262       .  A
N748        O751   1.260       .  A
C753        C754   1.535       .  S
C753        C759   1.527       .  S
C753        C757   1.543       .  S
C753        C928   1.536       .  S
C754        H761   1.081       .  S
C754        C755   1.371       .  D
C755        C756   1.540       .  S
C755        C770   1.494       .  S
C756        C760   1.539       .  S
C756        C758   1.538       .  S
C756        H762   1.097       .  S
C757        H763   1.073       .  S
C757        C758   1.375       .  D
C758        C767   1.495       .  S
C759        H764   1.086       .  S
C759        C760   1.356       .  D
C760        C914   1.489       .  S
C765       C1142   1.537       .  S
C765        C771   1.529       .  S
C765        C769   1.546       .  S
C765        C886   1.538       .  S
C766        H773   1.081       .  S
C766        C767   1.374       .  D
C768       C1143   1.538       .  S
C768        C772   1.535       .  S
C768        C770   1.537       .  S
C768        H774   1.097       .  S
C769        H775   1.068       .  S
C769        C770   1.371       .  D
C771        H776   1.086       .  S
C771        C772   1.356       .  D
C772        C903   1.484       .  S
C777        C778   1.535       .  S
C777        C783   1.532       .  S
C777        C781   1.532       .  S
C777        C872   1.539       .  S
C778        H785   1.085       .  S
C778        C779   1.365       .  D
C779        C780   1.555       .  S
C779        C791   1.491       .  S
C780        C784   1.552       .  S
C780        C782   1.547       .  S
C780        H786   1.111       .  S
C781        H787   1.087       .  S
C781        C782   1.365       .  D
C782        C794   1.491       .  S
C783        H788   1.085       .  S
C783        C784   1.366       .  D
C784        C861   1.480       .  S
C789       C1166   1.531       .  S
C789        C795   1.533       .  S
C789        C793   1.537       .  S
C789        C844   1.537       .  S
C790        H797   1.086       .  S
C790        C791   1.366       .  D
C792       C1167   1.548       .  S
C792        C796   1.552       .  S
C792        C794   1.553       .  S
C792        H798   1.107       .  S
C793        H799   1.082       .  S
C793        C794   1.362       .  D
C795        H800   1.086       .  S
C795        C796   1.367       .  D
C796        C830   1.485       .  S
O801        V809   1.892   1_455  S
O802        V997   1.893       .  S
O803        V809   1.913       .  S
O804        V997   1.921   1_455  S
O805        V998   1.891   1_455  S
O805        C814   1.263       .  A
O806        V810   1.887       .  S
O806        C813   1.261       .  A
O807        V998   1.901       .  S
O807        C812   1.266       .  A
O808        V810   1.901   1_455  S
O808        C811   1.265       .  A
V809        O990   1.893   1_554  S
V809        O992   1.920   1_654  S
V810        O993   1.892   1_654  S
V810        O995   1.903   1_554  S
V810       V1185   2.085       .  T
C811       O1177   1.262       .  A
C811        C847   1.471       .  S
C812       O1178   1.263       .  A
C812        C889   1.479       .  S
C813       O1179   1.268       .  A
C813        C900   1.480       .  S
C814       O1180   1.270       .  A
C814        C833   1.493       .  S
O815        V823   1.897       .  S
O815        C825   1.263       .  A
O816       V1011   1.897   1_554  S
O816        C826   1.263       .  A
O817        V823   1.911       .  S
O817        C827   1.268       .  A
O818       V1011   1.903   1_554  S
O818        C828   1.265       .  A
O819        V824   1.890   1_554  S
O819        C828   1.263       .  A
O820       V1012   1.892       .  S
O820        C827   1.261       .  A
O821        V824   1.900   1_554  S
O821        C826   1.264       .  A
O822       V1012   1.905       .  S
O822        C825   1.265       .  A
V823       O1004   1.896       .  S
V823       O1006   1.907       .  S
V823       V1012   2.086       .  T
V824       O1008   1.894       .  S
V824       O1010   1.903       .  S
V824       V1011   2.085       .  T
C825        C917   1.479       .  S
C826        C875   1.470       .  S
C827        C858   1.489       .  S
C828        C931   1.477       .  S
C829        C830   1.404       .  A
C829        C834   1.413       .  A
C829        H836   1.084       .  S
C830        C831   1.413       .  A
C831        C832   1.401       .  A
C831        N838   1.441       .  S
C832        C833   1.406       .  A
C832        H837   1.083       .  S
C833        C834   1.419       .  A
C834        N835   1.437       .  S
N835        O839   1.263       .  A
N835        O840   1.262       .  A
N838       O1218   1.263       .  A
N838        O841   1.262       .  A
C843        C844   1.410       .  A
C843        C848   1.399       .  A
C843        H850   1.083       .  S
C844        C845   1.428       .  A
C845        C846   1.402       .  A
C845        N852   1.434       .  S
C846        C847   1.394       .  A
C846        H851   1.084       .  S
C847        C848   1.407       .  A
C848        N849   1.430       .  S
N849        O853   1.262   1_455  A
N849        O854   1.262       .  A
N852       O1232   1.262       .  A
N852        O855   1.263       .  A
C857        C858   1.408       .  A
C857        C862   1.407       .  A
C857        H864   1.083       .  S
C858        C859   1.419       .  A
C859        C860   1.400       .  A
C859        N866   1.436       .  S
C860        C861   1.401       .  A
C860        H865   1.084       .  S
C861        C862   1.409       .  A
C862        N863   1.433       .  S
N863        O867   1.261       .  A
N863        O868   1.262       .  A
N866        O870   1.262       .  A
N866        O869   1.263       .  A
C871        C872   1.413       .  A
C871        C876   1.401       .  A
C871        H878   1.080       .  S
C872        C873   1.429       .  A
C873        C874   1.402       .  A
C873        N880   1.435       .  S
C874        C875   1.395       .  A
C874        H879   1.084       .  S
C875        C876   1.405       .  A
C876        N877   1.431       .  S
N877        O881   1.262       .  A
N877        O882   1.262       .  A
N880        O884   1.263       .  A
N880        O883   1.261       .  A
C885        C886   1.413       .  A
C885        C890   1.403       .  A
C885        H892   1.070       .  S
C886        C887   1.422       .  A
C887        C888   1.399       .  A
C887        N894   1.433       .  S
C888        C889   1.401       .  A
C888        H893   1.083       .  S
C889        C890   1.410       .  A
C890        N891   1.437       .  S
N891       O1271   1.263       .  A
N891        O896   1.262       .  A
N894        O898   1.262       .  A
N894       O1273   1.261       .  A
C899        C904   1.408       .  A
C899        H906   1.084       .  S
C900       C1275   1.405       .  A
C900        C901   1.412       .  A
C901        C902   1.395       .  A
C901        N908   1.430       .  S
C902        C903   1.401       .  A
C902        H907   1.084       .  S
C903       C1280   1.415       .  A
C904        N905   1.435       .  S
N905        O909   1.262       .  A
N905        O910   1.262       .  A
N908        O912   1.261       .  A
N908        O911   1.262       .  A
C913        C914   1.407       .  A
C913        C918   1.400       .  A
C913        H920   1.084       .  S
C914        C915   1.413       .  A
C915        C916   1.405       .  A
C915        N922   1.434       .  S
C916        C917   1.405       .  A
C916        H921   1.083       .  S
C917        C918   1.410       .  A
C918        N919   1.433       .  S
N919        O923   1.262       .  A
N919        O924   1.262       .  A
N922        O926   1.262       .  A
N922        O925   1.262       .  A
C927        C928   1.413       .  A
C927        C932   1.406       .  A
C927        H934   1.075       .  S
C928        C929   1.422       .  A
C929        C930   1.394       .  A
C929        N936   1.433       .  S
C930        C931   1.399       .  A
C930        H935   1.084       .  S
C931        C932   1.411       .  A
C932        N933   1.438       .  S
N933        O937   1.263       .  A
N933        O938   1.262       .  A
N936        O940   1.262       .  A
N936        O939   1.260       .  A
C941        C942   1.534       .  S
C941        C947   1.530       .  S
C941        C945   1.543       .  S
C941       C1116   1.536       .  S
C942        H949   1.081       .  S
C942        C943   1.371       .  D
C943        C944   1.540       .  S
C943        C958   1.493       .  S
C944        C948   1.534       .  S
C944        C946   1.537       .  S
C944        H950   1.099       .  S
C945        H951   1.072       .  S
C945        C946   1.373       .  D
C946        C955   1.493       .  S
C947        H952   1.086       .  S
C947        C948   1.355       .  D
C948       C1102   1.479       .  S
C953       C1330   1.538       .  S
C953        C959   1.530       .  S
C953        C957   1.546       .  S
C953       C1074   1.540       .  S
C954        H961   1.081       .  S
C954        C955   1.373       .  D
C956       C1331   1.537       .  S
C956        C960   1.532       .  S
C956        C958   1.537       .  S
C956        H962   1.097       .  S
C957        H963   1.073       .  S
C957        C958   1.372       .  D
C959        H964   1.086       .  S
C959        C960   1.355       .  D
C960       C1091   1.482       .  S
C965        C966   1.532       .  S
C965        C971   1.530       .  S
C965        C969   1.534       .  S
C965       C1060   1.541       .  S
C966        H973   1.086       .  S
C966        C967   1.366       .  D
C967        C968   1.559       .  S
C967        C979   1.491       .  S
C968        C972   1.552       .  S
C968        C970   1.546       .  S
C968        H974   1.110       .  S
C969        H975   1.087       .  S
C969        C970   1.367       .  D
C970        C982   1.492       .  S
C971        H976   1.082       .  S
C971        C972   1.366       .  D
C972       C1049   1.486       .  S
C977       C1354   1.529       .  S
C977        C983   1.531       .  S
C977        C981   1.539       .  S
C977       C1032   1.537       .  S
C978        H985   1.087       .  S
C978        C979   1.366       .  D
C980       C1355   1.549       .  S
C980        C984   1.553       .  S
C980        C982   1.553       .  S
C980        H986   1.108       .  S
C981        H987   1.081       .  S
C981        C982   1.362       .  D
C983        H988   1.087       .  S
C983        C984   1.367       .  D
C984       C1018   1.486       .  S
O989        V997   1.892   1_455  S
O991        V997   1.914       .  S
O993       C1002   1.263       .  A
O994        V998   1.887       .  S
O994       C1001   1.261       .  A
O995       C1000   1.266       .  A
O996        V998   1.898   1_455  S
O996        C999   1.265       .  A
V998       V1373   2.086       .  T
C999       O1365   1.261       .  A
C999       C1035   1.470       .  S
C1000      O1366   1.263       .  A
C1000      C1077   1.480       .  S
C1001      O1367   1.268       .  A
C1001      C1088   1.479       .  S
C1002      O1368   1.270       .  A
C1002      C1021   1.493       .  S
O1003      V1011   1.902       .  S
O1003      C1013   1.266       .  A
O1004      C1014   1.261       .  A
O1005      V1011   1.908       .  S
O1005      C1015   1.266       .  A
O1006      C1016   1.267       .  A
O1007      V1012   1.887       .  S
O1007      C1016   1.262       .  A
O1008      C1015   1.262       .  A
O1009      V1012   1.903       .  S
O1009      C1014   1.265       .  A
O1010      C1013   1.264       .  A
C1013      C1105   1.491       .  S
C1014      C1063   1.469       .  S
C1015      C1046   1.481       .  S
C1016      C1119   1.478       .  S
C1017      C1018   1.404       .  A
C1017      C1022   1.413       .  A
C1017      H1024   1.084       .  S
C1018      C1019   1.415       .  A
C1019      C1020   1.402       .  A
C1019      N1026   1.442       .  S
C1020      C1021   1.406       .  A
C1020      H1025   1.083       .  S
C1021      C1022   1.418       .  A
C1022      N1023   1.436       .  S
N1023      O1027   1.263       .  A
N1023      O1028   1.262       .  A
N1026      O1406   1.263       .  A
N1026      O1029   1.263       .  A
C1031      C1032   1.410       .  A
C1031      C1036   1.402       .  A
C1031      H1038   1.084       .  S
C1032      C1033   1.425       .  A
C1033      C1034   1.399       .  A
C1033      N1040   1.431       .  S
C1034      C1035   1.394       .  A
C1034      H1039   1.084       .  S
C1035      C1036   1.411       .  A
C1036      N1037   1.435       .  S
N1037      O1041   1.262   1_455  A
N1037      O1042   1.262       .  A
N1040      O1420   1.263       .  A
N1040      O1043   1.263       .  A
C1045      C1046   1.409       .  A
C1045      C1050   1.409       .  A
C1045      H1052   1.083       .  S
C1046      C1047   1.411       .  A
C1047      C1048   1.395       .  A
C1047      N1054   1.433       .  S
C1048      C1049   1.404       .  A
C1048      H1053   1.084       .  S
C1049      C1050   1.407       .  A
C1050      N1051   1.428       .  S
N1051      O1055   1.261       .  A
N1051      O1056   1.262       .  A
N1054      O1058   1.261       .  A
N1054      O1057   1.262       .  A
C1059      C1060   1.413       .  A
C1059      C1064   1.400       .  A
C1059      H1066   1.077       .  S
C1060      C1061   1.425       .  A
C1061      C1062   1.402       .  A
C1061      N1068   1.429       .  S
C1062      C1063   1.394       .  A
C1062      H1067   1.084       .  S
C1063      C1064   1.404       .  A
C1064      N1065   1.432       .  S
N1065      O1069   1.262       .  A
N1065      O1070   1.262       .  A
N1068      O1072   1.262       .  A
N1068      O1071   1.259       .  A
C1073      C1074   1.413       .  A
C1073      C1078   1.404       .  A
C1073      H1080   1.075       .  S
C1074      C1075   1.423       .  A
C1075      C1076   1.400       .  A
C1075      N1082   1.434       .  S
C1076      C1077   1.401       .  A
C1076      H1081   1.084       .  S
C1077      C1078   1.411       .  A
C1078      N1079   1.438       .  S
N1079      O1459   1.263       .  A
N1079      O1084   1.263       .  A
N1082      O1086   1.262       .  A
N1082      O1461   1.261       .  A
C1087      C1092   1.409       .  A
C1087      H1094   1.084       .  S
C1088      C1463   1.404       .  A
C1088      C1089   1.413       .  A
C1089      C1090   1.395       .  A
C1089      N1096   1.432       .  S
C1090      C1091   1.401       .  A
C1090      H1095   1.084       .  S
C1091      C1468   1.414       .  A
C1092      N1093   1.435       .  S
N1093      O1097   1.262       .  A
N1093      O1098   1.262       .  A
N1096      O1100   1.262       .  A
N1096      O1099   1.262       .  A
C1101      C1102   1.401       .  A
C1101      C1106   1.403       .  A
C1101      H1108   1.084       .  S
C1102      C1103   1.410       .  A
C1103      C1104   1.406       .  A
C1103      N1110   1.437       .  S
C1104      C1105   1.410       .  A
C1104      H1109   1.084       .  S
C1105      C1106   1.419       .  A
C1106      N1107   1.436       .  S
N1107      O1111   1.262       .  A
N1107      O1112   1.263       .  A
N1110      O1114   1.262       .  A
N1110      O1113   1.263       .  A
C1115      C1116   1.414       .  A
C1115      C1120   1.406       .  A
C1115      H1122   1.075       .  S
C1116      C1117   1.421       .  A
C1117      C1118   1.394       .  A
C1117      N1124   1.433       .  S
C1118      C1119   1.401       .  A
C1118      H1123   1.084       .  S
C1119      C1120   1.410       .  A
C1120      N1121   1.438       .  S
N1121      O1125   1.263       .  A
N1121      O1126   1.263       .  A
N1124      O1128   1.262       .  A
N1124      O1127   1.261       .  A
C1129      C1130   1.534       .  S
C1129      C1135   1.531       .  S
C1129      C1133   1.543       .  S
C1129      C1304   1.536       .  S
C1130      H1137   1.081       .  S
C1130      C1131   1.371       .  D
C1131      C1132   1.540       .  S
C1131      C1146   1.493       .  S
C1132      C1136   1.534       .  S
C1132      C1134   1.536       .  S
C1132      H1138   1.099       .  S
C1133      H1139   1.072       .  S
C1133      C1134   1.374       .  D
C1134      C1143   1.493       .  S
C1135      H1140   1.086       .  S
C1135      C1136   1.355       .  D
C1136      C1290   1.479       .  S
C1141      C1147   1.530       .  S
C1141      C1145   1.546       .  S
C1141      C1262   1.540       .  S
C1142      H1149   1.081       .  S
C1142      C1143   1.373       .  D
C1144      C1148   1.532       .  S
C1144      C1146   1.537       .  S
C1144      H1150   1.097       .  S
C1145      H1151   1.073       .  S
C1145      C1146   1.372       .  D
C1147      H1152   1.086       .  S
C1147      C1148   1.355       .  D
C1148      C1279   1.482       .  S
C1153      C1154   1.532       .  S
C1153      C1159   1.530       .  S
C1153      C1157   1.534       .  S
C1153      C1248   1.541       .  S
C1154      H1161   1.086       .  S
C1154      C1155   1.366       .  D
C1155      C1156   1.559       .  S
C1155      C1167   1.490       .  S
C1156      C1160   1.551       .  S
C1156      C1158   1.546       .  S
C1156      H1162   1.110       .  S
C1157      H1163   1.087       .  S
C1157      C1158   1.367       .  D
C1158      C1170   1.492       .  S
C1159      H1164   1.082       .  S
C1159      C1160   1.366       .  D
C1160      C1237   1.486       .  S
C1165      C1171   1.531       .  S
C1165      C1169   1.539       .  S
C1165      C1220   1.537       .  S
C1166      H1173   1.087       .  S
C1166      C1167   1.366       .  D
C1168      C1172   1.553       .  S
C1168      C1170   1.553       .  S
C1168      H1174   1.108       .  S
C1169      H1175   1.081       .  S
C1169      C1170   1.362       .  D
C1171      H1176   1.087       .  S
C1171      C1172   1.367       .  D
C1172      C1206   1.486       .  S
O1177      V1185   1.892   1_455  S
O1178      V1373   1.893       .  S
O1179      V1185   1.914       .  S
O1180      V1373   1.920   1_455  S
O1181      V1374   1.891   1_455  S
O1181      C1190   1.263       .  A
O1182      V1186   1.887       .  S
O1182      C1189   1.261       .  A
O1183      V1374   1.903       .  S
O1183      C1188   1.266       .  A
O1184      V1186   1.897   1_455  S
O1184      C1187   1.265       .  A
V1185      O1366   1.893   1_554  S
V1185      O1368   1.921   1_654  S
V1186      O1369   1.890   1_654  S
V1186      O1371   1.901   1_554  S
C1187      C1223   1.470       .  S
C1188      C1265   1.480       .  S
C1189      C1276   1.479       .  S
C1190      C1209   1.493       .  S
O1191      V1199   1.902       .  S
O1191      C1201   1.266       .  A
O1192      V1387   1.896   1_554  S
O1192      C1202   1.261       .  A
O1193      V1199   1.908       .  S
O1193      C1203   1.266       .  A
O1194      V1387   1.908   1_554  S
O1194      C1204   1.267       .  A
O1195      V1200   1.887   1_554  S
O1195      C1204   1.262       .  A
O1196      V1388   1.895       .  S
O1196      C1203   1.263       .  A
O1197      V1200   1.903   1_554  S
O1197      C1202   1.265       .  A
O1198      V1388   1.903       .  S
O1198      C1201   1.264       .  A
V1199      O1380   1.897       .  S
V1199      O1382   1.903       .  S
V1199      V1388   2.085       .  T
V1200      O1384   1.892       .  S
V1200      O1386   1.905       .  S
V1200      V1387   2.086       .  T
C1201      C1293   1.492       .  S
C1202      C1251   1.469       .  S
C1203      C1234   1.480       .  S
C1204      C1307   1.478       .  S
C1205      C1206   1.404   1_545  A
C1205      C1210   1.413       .  A
C1205      H1212   1.084       .  S
C1206      C1207   1.415       .  A
C1207      C1208   1.402       .  A
C1207      N1214   1.442       .  S
C1208      C1209   1.406       .  A
C1208      H1213   1.083       .  S
C1209      C1210   1.418   1_565  A
C1210      N1211   1.436       .  S
N1211      O1215   1.263       .  A
N1211      O1216   1.262       .  A
N1214      O1217   1.263       .  A
C1219      C1220   1.410   1_545  A
C1219      C1224   1.401       .  A
C1219      H1226   1.084       .  S
C1220      C1221   1.425       .  A
C1221      C1222   1.399       .  A
C1221      N1228   1.431       .  S
C1222      C1223   1.394       .  A
C1222      H1227   1.084       .  S
C1223      C1224   1.411   1_565  A
C1224      N1225   1.435       .  S
N1225      O1229   1.262   1_455  A
N1225      O1230   1.262       .  A
N1228      O1231   1.263       .  A
C1233      C1234   1.409       .  A
C1233      C1238   1.409       .  A
C1233      H1240   1.083       .  S
C1234      C1235   1.410       .  A
C1235      C1236   1.394       .  A
C1235      N1242   1.432       .  S
C1236      C1237   1.404       .  A
C1236      H1241   1.084       .  S
C1237      C1238   1.407       .  A
C1238      N1239   1.427       .  S
N1239      O1243   1.261       .  A
N1239      O1244   1.262       .  A
N1242      O1246   1.262       .  A
N1242      O1245   1.262       .  A
C1247      C1248   1.413       .  A
C1247      C1252   1.400       .  A
C1247      H1254   1.076       .  S
C1248      C1249   1.425       .  A
C1249      C1250   1.402       .  A
C1249      N1256   1.429       .  S
C1250      C1251   1.394       .  A
C1250      H1255   1.084       .  S
C1251      C1252   1.404       .  A
C1252      N1253   1.432       .  S
N1253      O1257   1.262       .  A
N1253      O1258   1.262       .  A
N1256      O1260   1.262       .  A
N1256      O1259   1.259       .  A
C1261      C1262   1.413       .  A
C1261      C1266   1.404       .  A
C1261      H1268   1.075       .  S
C1262      C1263   1.423   1_565  A
C1263      C1264   1.400       .  A
C1263      N1270   1.434       .  S
C1264      C1265   1.401   1_545  A
C1264      H1269   1.084       .  S
C1265      C1266   1.411       .  A
C1266      N1267   1.437       .  S
N1267      O1272   1.263       .  A
N1270      O1274   1.262       .  A
C1275      C1280   1.409       .  A
C1275      H1282   1.084       .  S
C1276      C1277   1.413       .  A
C1277      C1278   1.395       .  A
C1277      N1284   1.432       .  S
C1278      C1279   1.401       .  A
C1278      H1283   1.084       .  S
C1280      N1281   1.435       .  S
N1281      O1285   1.262       .  A
N1281      O1286   1.262       .  A
N1284      O1288   1.262       .  A
N1284      O1287   1.262       .  A
C1289      C1290   1.401       .  A
C1289      C1294   1.403       .  A
C1289      H1296   1.084       .  S
C1290      C1291   1.410       .  A
C1291      C1292   1.406       .  A
C1291      N1298   1.438       .  S
C1292      C1293   1.410       .  A
C1292      H1297   1.084       .  S
C1293      C1294   1.419       .  A
C1294      N1295   1.436       .  S
N1295      O1299   1.262       .  A
N1295      O1300   1.263       .  A
N1298      O1302   1.262       .  A
N1298      O1301   1.263       .  A
C1303      C1304   1.414       .  A
C1303      C1308   1.406       .  A
C1303      H1310   1.075       .  S
C1304      C1305   1.421       .  A
C1305      C1306   1.395       .  A
C1305      N1312   1.433       .  S
C1306      C1307   1.401       .  A
C1306      H1311   1.084       .  S
C1307      C1308   1.410       .  A
C1308      N1309   1.438       .  S
N1309      O1313   1.263       .  A
N1309      O1314   1.263       .  A
N1312      O1316   1.262       .  A
N1312      O1315   1.261       .  A
C1317      C1318   1.535       .  S
C1317      C1323   1.527       .  S
C1317      C1321   1.543       .  S
C1317      C1492   1.536       .  S
C1318      H1325   1.081       .  S
C1318      C1319   1.371       .  D
C1319      C1320   1.540       .  S
C1319      C1334   1.494       .  S
C1320      C1324   1.539       .  S
C1320      C1322   1.538       .  S
C1320      H1326   1.097       .  S
C1321      H1327   1.073       .  S
C1321      C1322   1.375       .  D
C1322      C1331   1.495       .  S
C1323      H1328   1.086       .  S
C1323      C1324   1.356       .  D
C1324      C1478   1.489       .  S
C1329      C1335   1.530       .  S
C1329      C1333   1.546       .  S
C1329      C1450   1.538       .  S
C1330      H1337   1.081       .  S
C1330      C1331   1.374       .  D
C1332      C1336   1.535       .  S
C1332      C1334   1.537       .  S
C1332      H1338   1.097       .  S
C1333      H1339   1.069       .  S
C1333      C1334   1.371       .  D
C1335      H1340   1.086       .  S
C1335      C1336   1.356       .  D
C1336      C1467   1.484       .  S
C1341      C1342   1.535       .  S
C1341      C1347   1.532       .  S
C1341      C1345   1.531       .  S
C1341      C1436   1.539       .  S
C1342      H1349   1.085       .  S
C1342      C1343   1.365       .  D
C1343      C1344   1.555       .  S
C1343      C1355   1.491       .  S
C1344      C1348   1.552       .  S
C1344      C1346   1.547       .  S
C1344      H1350   1.111       .  S
C1345      H1351   1.087       .  S
C1345      C1346   1.365       .  D
C1346      C1358   1.490       .  S
C1347      H1352   1.085       .  S
C1347      C1348   1.366       .  D
C1348      C1425   1.480       .  S
C1353      C1359   1.533       .  S
C1353      C1357   1.537       .  S
C1353      C1408   1.537       .  S
C1354      H1361   1.086       .  S
C1354      C1355   1.366       .  D
C1356      C1360   1.552       .  S
C1356      C1358   1.553       .  S
C1356      H1362   1.107       .  S
C1357      H1363   1.082       .  S
C1357      C1358   1.362       .  D
C1359      H1364   1.086       .  S
C1359      C1360   1.367       .  D
C1360      C1394   1.485       .  S
O1365      V1373   1.892   1_455  S
O1367      V1373   1.912       .  S
O1369      C1378   1.263       .  A
O1370      V1374   1.887       .  S
O1370      C1377   1.261       .  A
O1371      C1376   1.266       .  A
O1372      V1374   1.901   1_455  S
O1372      C1375   1.265       .  A
C1375      C1411   1.470       .  S
C1376      C1453   1.478       .  S
C1377      C1464   1.481       .  S
C1378      C1397   1.493       .  S
O1379      V1387   1.896       .  S
O1379      C1389   1.263       .  A
O1380      C1390   1.263       .  A
O1381      V1387   1.911       .  S
O1381      C1391   1.269       .  A
O1382      C1392   1.265       .  A
O1383      V1388   1.890       .  S
O1383      C1392   1.263       .  A
O1384      C1391   1.261       .  A
O1385      V1388   1.899       .  S
O1385      C1390   1.264       .  A
O1386      C1389   1.265       .  A
C1389      C1481   1.479       .  S
C1390      C1439   1.470       .  S
C1391      C1422   1.489       .  S
C1392      C1495   1.477       .  S
C1393      C1394   1.404   1_545  A
C1393      C1398   1.413       .  A
C1393      H1400   1.084       .  S
C1394      C1395   1.413       .  A
C1395      C1396   1.401       .  A
C1395      N1402   1.441       .  S
C1396      C1397   1.406       .  A
C1396      H1401   1.083       .  S
C1397      C1398   1.419   1_565  A
C1398      N1399   1.438       .  S
N1399      O1403   1.263       .  A
N1399      O1404   1.262       .  A
N1402      O1405   1.262       .  A
C1407      C1408   1.410   1_545  A
C1407      C1412   1.398       .  A
C1407      H1414   1.083       .  S
C1408      C1409   1.429       .  A
C1409      C1410   1.402       .  A
C1409      N1416   1.434       .  S
C1410      C1411   1.394       .  A
C1410      H1415   1.084       .  S
C1411      C1412   1.407   1_565  A
C1412      N1413   1.430       .  S
N1413      O1417   1.262   1_455  A
N1413      O1418   1.262       .  A
N1416      O1419   1.263       .  A
C1421      C1422   1.408       .  A
C1421      C1426   1.407       .  A
C1421      H1428   1.083       .  S
C1422      C1423   1.419       .  A
C1423      C1424   1.401       .  A
C1423      N1430   1.436       .  S
C1424      C1425   1.401       .  A
C1424      H1429   1.084       .  S
C1425      C1426   1.409       .  A
C1426      N1427   1.433       .  S
N1427      O1431   1.261       .  A
N1427      O1432   1.262       .  A
N1430      O1434   1.262       .  A
N1430      O1433   1.263       .  A
C1435      C1436   1.413       .  A
C1435      C1440   1.400       .  A
C1435      H1442   1.080       .  S
C1436      C1437   1.429       .  A
C1437      C1438   1.402       .  A
C1437      N1444   1.435       .  S
C1438      C1439   1.395       .  A
C1438      H1443   1.084       .  S
C1439      C1440   1.405       .  A
C1440      N1441   1.431       .  S
N1441      O1445   1.262       .  A
N1441      O1446   1.262       .  A
N1444      O1448   1.263       .  A
N1444      O1447   1.261       .  A
C1449      C1450   1.413       .  A
C1449      C1454   1.403       .  A
C1449      H1456   1.071       .  S
C1450      C1451   1.422   1_565  A
C1451      C1452   1.399       .  A
C1451      N1458   1.433       .  S
C1452      C1453   1.401   1_545  A
C1452      H1457   1.083       .  S
C1453      C1454   1.410       .  A
C1454      N1455   1.437       .  S
N1455      O1460   1.263       .  A
N1458      O1462   1.262       .  A
C1463      C1468   1.408       .  A
C1463      H1470   1.084       .  S
C1464      C1465   1.412       .  A
C1465      C1466   1.395       .  A
C1465      N1472   1.430       .  S
C1466      C1467   1.401       .  A
C1466      H1471   1.084       .  S
C1468      N1469   1.435       .  S
N1469      O1473   1.262       .  A
N1469      O1474   1.262       .  A
N1472      O1476   1.261       .  A
N1472      O1475   1.262       .  A
C1477      C1478   1.406       .  A
C1477      C1482   1.400       .  A
C1477      H1484   1.084       .  S
C1478      C1479   1.413       .  A
C1479      C1480   1.405       .  A
C1479      N1486   1.434       .  S
C1480      C1481   1.406       .  A
C1480      H1485   1.083       .  S
C1481      C1482   1.410       .  A
C1482      N1483   1.433       .  S
N1483      O1487   1.262       .  A
N1483      O1488   1.262       .  A
N1486      O1490   1.262       .  A
N1486      O1489   1.262       .  A
C1491      C1492   1.413       .  A
C1491      C1496   1.407       .  A
C1491      H1498   1.075       .  S
C1492      C1493   1.422       .  A
C1493      C1494   1.394       .  A
C1493      N1500   1.433       .  S
C1494      C1495   1.399       .  A
C1494      H1499   1.084       .  S
C1495      C1496   1.412       .  A
C1496      N1497   1.438       .  S
N1497      O1501   1.263       .  A
N1497      O1502   1.262       .  A
N1500      O1504   1.262       .  A
N1500      O1503   1.260       .  A
