geometry optimzed in LAMMPS
_audit_creation_date              2020-11-30 
_audit_creation_method            'lammps2cif' 
_symmetry_space_group_name_H-M    'P1' 
_symmetry_Int_Tables_number       1 
_symmetry_cell_setting            triclinic 
loop_ 
_symmetry_equiv_pos_as_xyz 
  x,y,z 
_cell_length_a                    25.84773246 
_cell_length_b                    36.52441555562574 
_cell_length_c                    51.097740149255735 
_cell_angle_alpha                 90.02828556120468 
_cell_angle_beta                  89.84949198095356 
_cell_angle_gamma                 90.60981105158174 
loop_ 
_atom_site_label 
_atom_site_type_symbol 
_atom_site_fract_x 
_atom_site_fract_y 
_atom_site_fract_z 
_atom_site_charge 
O1          O  0.56031567  0.53207153  0.47533154    -0.70900
O2          O  0.55395433  0.46014369  0.02911890    -0.71100
O3          O  0.55892966  0.45879984  0.47659696    -0.71000
O4          O  0.55518042  0.53369599  0.02835173    -0.71000
O5          O  0.47182131  0.53385506  0.02627936    -0.71000
O6          O  0.47495423  0.45874902  0.47502227    -0.71000
O7          O  0.47034599  0.46011614  0.02707968    -0.70900
O8          O  0.47636106  0.53165326  0.47355587    -0.71100
V9          V  0.55556108  0.49630302  0.50236165     1.35200
V10         V  0.47503117  0.49621673  0.00059758     1.35200
C11         C  0.51922197  0.54297351  0.46459993     0.78300
C12         C  0.51102077  0.44724053  0.03696285     0.78400
C13         C  0.51741502  0.44613538  0.46696010     0.78300
C14         C  0.51277893  0.54650138  0.03655059     0.78200
O15         O  0.04891976  0.96571667  0.02672731    -0.70900
O16         O  0.04942571  0.03836777  0.47368732    -0.71100
O17         O  0.04911010  0.03924098  0.02660151    -0.71000
O18         O  0.04853592  0.96544754  0.47395480    -0.71000
O19         O  0.96504745  0.96368766  0.47541526    -0.71000
O20         O  0.96521708  0.04002460  0.02542772    -0.71000
O21         O  0.96548207  0.03655184  0.47273024    -0.70900
O22         O  0.96490146  0.96661153  0.02766043    -0.71100
V23         V  0.04741686  0.00222093  0.00031018     1.35200
V24         V  0.96678618  0.00180532  0.00037552     1.35200
C25         C  0.00681087  0.95376584  0.03619498     0.78300
C26         C  0.00764721  0.04852698  0.46330820     0.78400
C27         C  0.00698334  0.05206066  0.03513145     0.78300
C28         C  0.00645374  0.95211581  0.46538109     0.78200
C29         C  0.94407411  0.26480279  0.25012640     0.30900
C30         C  0.05023535  0.27316860  0.24945245     0.30900
C31         C  0.96501828  0.30471361  0.25123212    -0.05300
C32         C  0.97396450  0.24570045  0.27208014    -0.06100
C33         C  0.97177030  0.25134431  0.22514655    -0.06000
C34         C  0.01873358  0.30863149  0.25158721    -0.05300
C35         C  0.02753922  0.24944462  0.27172373    -0.06100
C36         C  0.02570882  0.25388592  0.22536658    -0.06000
C37         C  0.02995144  0.34553009  0.25051241    -0.31400
N38         N  0.98508878  0.36455487  0.24817671     0.15100
C39         C  0.94538210  0.33960026  0.24802305    -0.31400
H40         H  0.90513270  0.34607234  0.24472258     0.17100
C41         C  0.04610591  0.22784449  0.29179055    -0.30400
N42         N  0.00525191  0.21203730  0.30437876     0.13900
C43         C  0.96108226  0.22262210  0.29243757    -0.30300
C44         C  0.04274647  0.23458781  0.20378646    -0.30600
N45         N  0.00135601  0.22390639  0.18937883     0.14400
H46         H  0.08228737  0.22757296  0.19912338     0.17000
C47         C  0.95787086  0.23486879  0.20181985    -0.30600
H48         H  0.91908100  0.22946374  0.19488810     0.17000
H49         H  0.92251956  0.21368524  0.29794678     0.17000
H50         H  0.06840294  0.35749664  0.25069526     0.17100
H51         H  0.08624108  0.22332475  0.29666953     0.17000
C52         C  0.04596022  0.73691220  0.24886478     0.30900
C53         C  0.93937182  0.73777152  0.25075942     0.30900
C54         C  0.01845328  0.69879239  0.24792975    -0.05300
C55         C  0.02164364  0.75450323  0.27307226    -0.06100
C56         C  0.01841640  0.75607639  0.22587861    -0.06000
C57         C  0.96405169  0.69913001  0.24962248    -0.05300
C58         C  0.96813193  0.75388325  0.27455795    -0.06100
C59         C  0.96483460  0.75679997  0.22729789    -0.06000
C60         C  0.94792605  0.66287186  0.25036683    -0.31400
N61         N  0.98964547  0.64104500  0.24722184     0.15100
C62         C  0.03278541  0.66250771  0.24564060    -0.31400
H63         H  0.07169704  0.65234165  0.24321693     0.17100
C64         C  0.95494612  0.76950235  0.29824658    -0.30400
N65         N  0.99879860  0.78132310  0.31016669     0.13900
C66         C  0.03988294  0.77209996  0.29510285    -0.30300
C67         C  0.94679199  0.77276619  0.20475152    -0.30600
N68         N  0.98786613  0.78215876  0.18953420     0.14400
H69         H  0.90669749  0.77689131  0.19967830     0.17000
C70         C  0.03149942  0.77089882  0.20181038    -0.30600
H71         H  0.07014715  0.77367063  0.19376682     0.17000
H72         H  0.07983630  0.77853021  0.29958601     0.17000
H73         H  0.90890986  0.65274325  0.25327363     0.17100
H74         H  0.91627607  0.77371279  0.30574073     0.17000
C75         C  0.44173397  0.76141505  0.25206327     0.30900
C76         C  0.54779299  0.76886386  0.25264145     0.30900
C77         C  0.46319786  0.80122608  0.25253791    -0.05300
C78         C  0.46989347  0.74295607  0.27486383    -0.06100
C79         C  0.47052355  0.74647142  0.22775390    -0.06000
C80         C  0.51689895  0.80482371  0.25334770    -0.05300
C81         C  0.52343990  0.74598126  0.27493269    -0.06100
C82         C  0.52445812  0.74858921  0.22869691    -0.06000
C83         C  0.52860208  0.84163460  0.25047194    -0.31400
N84         N  0.48398618  0.86070670  0.24714217     0.15100
C85         C  0.44405186  0.83595326  0.24777537    -0.31400
H86         H  0.40404466  0.84241591  0.24397399     0.17100
C87         C  0.54080566  0.72254919  0.29416684    -0.30400
N88         N  0.49947618  0.70741807  0.30664849     0.13900
C89         C  0.45584440  0.71931432  0.29479582    -0.30300
C90         C  0.54263806  0.72874166  0.20757793    -0.30600
N91         N  0.50183478  0.71776813  0.19280085     0.14400
H92         H  0.58251290  0.72211767  0.20336996     0.17000
C93         C  0.45776810  0.72915891  0.20453258    -0.30600
H94         H  0.41924175  0.72368321  0.19713790     0.17000
H95         H  0.41694005  0.71054694  0.29981572     0.17000
H96         H  0.56717621  0.85346285  0.24998140     0.17100
H97         H  0.58057598  0.71635073  0.29867487     0.17000
C98         C  0.44102423  0.23453404  0.25121118     0.30900
C99         C  0.54791954  0.23209732  0.25207173     0.30900
C100        C  0.46467078  0.19543235  0.25132486    -0.05300
C101        C  0.46951545  0.25066299  0.22714978    -0.06100
C102        C  0.46825912  0.25268563  0.27445917    -0.06000
C103        C  0.51933563  0.19425745  0.25192874    -0.05300
C104        C  0.52337642  0.24965555  0.22763910    -0.06100
C105        C  0.52162016  0.25191478  0.27466864    -0.06000
C106        C  0.53288512  0.15827106  0.24713917    -0.31400
N107        N  0.48922470  0.13763306  0.24426592     0.15100
C108        C  0.44779036  0.16013056  0.24557534    -0.31400
H109        H  0.40830319  0.15132672  0.24193381     0.17100
C110        C  0.54068894  0.26488282  0.20441940    -0.30400
N111        N  0.49916469  0.27557563  0.19034058     0.13900
C112        C  0.45553355  0.26612643  0.20354794    -0.30300
C113        C  0.53783847  0.27010062  0.29677199    -0.30600
N114        N  0.49555340  0.28117324  0.31034223     0.14400
H115        H  0.57760291  0.27508290  0.30251365     0.17000
C116        C  0.45276230  0.27032494  0.29693102    -0.30600
H117        H  0.41323233  0.27478390  0.30311424     0.17000
H118        H  0.41670187  0.27131826  0.19681313     0.17000
H119        H  0.57165946  0.14781177  0.24511558     0.17100
H120        H  0.58050913  0.26871994  0.19832259     0.17000
C121        C  0.44344803  0.96009208  0.25484247    -0.04600
C122        C  0.48049348  0.97856015  0.23912363     0.09500
C123        C  0.51562228  0.95755811  0.22433324    -0.02000
C124        C  0.51435731  0.91877213  0.22565595    -0.00200
C125        C  0.48026461  0.90024072  0.24311269    -0.03900
C126        C  0.44386774  0.92142131  0.25722472     0.03200
C127        C  0.48424857  0.01999962  0.23964695     0.10000
C128        C  0.55426297  0.97590896  0.20826330     0.35900
C129        C  0.40738968  0.90400844  0.27491346     0.39300
C130        C  0.50070401  0.03800116  0.26274147    -0.04200
C131        C  0.50067424  0.07661732  0.26434928     0.02900
C132        C  0.48729251  0.09802606  0.24247903    -0.03800
C133        C  0.47174453  0.08032863  0.21920046    -0.00100
C134        C  0.46982997  0.04149973  0.21779308    -0.02600
C135        C  0.51795126  0.01668223  0.28496001     0.36600
C136        C  0.45766637  0.10229564  0.19679140     0.40200
C137        C  0.51116932  0.09434992  0.28913418     0.39400
C138        C  0.45287850  0.02374066  0.19389875     0.36300
C139        C  0.40531710  0.98116964  0.26911300     0.37000
C140        C  0.54681860  0.89807188  0.20806232     0.40200
N141        N  0.51840528  0.10796671  0.30925700    -0.37800
N142        N  0.53174977  0.99961679  0.30264341    -0.39400
N143        N  0.44634785  0.11997262  0.17895051    -0.37200
N144        N  0.43973505  0.00960877  0.17472318    -0.39500
N145        N  0.58514148  0.99054448  0.19546013    -0.39300
N146        N  0.57270778  0.88215098  0.19359834    -0.37000
N147        N  0.37731007  0.89110052  0.28904930    -0.38000
N148        N  0.37512666  0.99806691  0.28055809    -0.39700
C149        C  0.69044136  0.77417473  0.23025287    -0.04600
C150        C  0.71549921  0.76462279  0.25372052     0.09500
C151        C  0.68792179  0.76637462  0.27747811    -0.02000
C152        C  0.63473406  0.77434664  0.27724732    -0.00200
C153        C  0.60716465  0.77414989  0.25326413    -0.03900
C154        C  0.63652660  0.77964684  0.23006295     0.03200
C155        C  0.77216617  0.75701786  0.25349646     0.10000
C156        C  0.71419320  0.75999160  0.30208052     0.35900
C157        C  0.61255517  0.79322854  0.20643184     0.39300
C158        C  0.80732125  0.78490759  0.26052096    -0.04200
C159        C  0.86082941  0.77933532  0.25788445     0.02900
C160        C  0.88033349  0.74423662  0.25073475    -0.03800
C161        C  0.84460536  0.71922977  0.23931744    -0.00100
C162        C  0.79088677  0.72433616  0.24245841    -0.02600
C163        C  0.78827436  0.82000633  0.26955982     0.36600
C164        C  0.86140950  0.69370822  0.21945552     0.40200
C165        C  0.89479372  0.81120230  0.25969281     0.39400
C166        C  0.75466409  0.69660493  0.23324246     0.36300
C167        C  0.72047843  0.77892500  0.20643006     0.37000
C168        C  0.61026337  0.78676798  0.30118871     0.40200
N169        N  0.92161864  0.83669987  0.26113426    -0.37800
N170        N  0.77309033  0.84788875  0.27690023    -0.39400
N171        N  0.87380207  0.67394249  0.20293607    -0.37200
N172        N  0.72572212  0.67450096  0.22593157    -0.39500
N173        N  0.73524727  0.75472226  0.32166047    -0.39300
N174        N  0.59099348  0.79687724  0.32030795    -0.37000
N175        N  0.59387995  0.80350809  0.18727421    -0.38000
N176        N  0.74474841  0.78281672  0.18755325    -0.39700
C177        C  0.18781477  0.76957889  0.23850986    -0.04600
C178        C  0.21578596  0.74350171  0.25272537     0.09500
C179        C  0.18864019  0.71767749  0.26814316    -0.02000
C180        C  0.13401722  0.71560745  0.26711871    -0.00200
C181        C  0.10577821  0.73916225  0.25028666    -0.03900
C182        C  0.13347386  0.76983698  0.23995751     0.03200
C183        C  0.27353624  0.74640402  0.25417488     0.10000
C184        C  0.21693156  0.69466417  0.28618442     0.35900
C185        C  0.10834099  0.80478002  0.23634756     0.39300
C186        C  0.29712035  0.77443659  0.26912463    -0.04200
C187        C  0.35153883  0.77769155  0.26993935     0.02900
C188        C  0.38269977  0.75504979  0.25390065    -0.03800
C189        C  0.35907161  0.72224204  0.24449531    -0.00100
C190        C  0.30477236  0.71932082  0.24281378    -0.02600
C191        C  0.26536628  0.79881108  0.28463809     0.36600
C192        C  0.38919722  0.68936187  0.24069673     0.40200
C193        C  0.37504414  0.79954121  0.29049412     0.39400
C194        C  0.28106453  0.68782534  0.23013696     0.36300
C195        C  0.21496892  0.79720893  0.22319671     0.37000
C196        C  0.10742875  0.69325357  0.28641691     0.40200
N197        N  0.39389897  0.81579759  0.30748397    -0.37800
N198        N  0.23989284  0.81814525  0.29701316    -0.39400
N199        N  0.41292620  0.66291865  0.23798128    -0.37200
N200        N  0.26215244  0.66261639  0.22013532    -0.39500
N201        N  0.23963717  0.67656453  0.30065654    -0.39300
N202        N  0.08690049  0.67602018  0.30241845    -0.37000
N203        N  0.08890898  0.83296529  0.23382979    -0.38000
N204        N  0.23654010  0.81906285  0.21078791    -0.39700
C205        C  0.80006114  0.27414848  0.27061261    -0.04600
C206        C  0.77588793  0.24687859  0.25508184     0.09500
C207        C  0.80713958  0.22191081  0.24142600    -0.02000
C208        C  0.86145040  0.22531396  0.24245553    -0.00200
C209        C  0.88510820  0.25763620  0.25269818    -0.03900
C210        C  0.85444389  0.27871686  0.27005796     0.03200
C211        C  0.71792728  0.24275077  0.25483324     0.10000
C212        C  0.78358462  0.19214089  0.22670706     0.35900
C213        C  0.87897375  0.30062346  0.29028009     0.39300
C214        C  0.68730958  0.27078652  0.24443345    -0.04200
C215        C  0.63308649  0.26866172  0.24649509     0.02900
C216        C  0.60778766  0.23542460  0.25393172    -0.03800
C217        C  0.63847133  0.20969453  0.26756807    -0.00100
C218        C  0.69318406  0.21281539  0.26737604    -0.02600
C219        C  0.71152841  0.30253926  0.23223119     0.36600
C220        C  0.61472728  0.18433485  0.28580150     0.40200
C221        C  0.60493486  0.30269315  0.24588399     0.39400
C222        C  0.72403672  0.18595447  0.28104844     0.36300
C223        C  0.76912810  0.29678975  0.28782434     0.37000
C224        C  0.89166031  0.19291997  0.23710477     0.40200
N225        N  0.58337038  0.33022949  0.24658353    -0.37800
N226        N  0.73077989  0.32784565  0.22248353    -0.39400
N227        N  0.59692193  0.16457815  0.30111934    -0.37200
N228        N  0.74879554  0.16444189  0.29175760    -0.39500
N229        N  0.76482573  0.16833542  0.21502797    -0.39300
N230        N  0.91519194  0.16677890  0.23288343    -0.37000
N231        N  0.89882270  0.31704977  0.30689826    -0.38000
N232        N  0.74446773  0.31499353  0.30145051    -0.39700
C233        C  0.19093405  0.27840093  0.27410942    -0.04600
C234        C  0.21780792  0.26807094  0.25120935     0.09500
C235        C  0.19222519  0.27034669  0.22693444    -0.02000
C236        C  0.13930165  0.27910667  0.22614808    -0.00200
C237        C  0.10966338  0.27885338  0.24949327    -0.03900
C238        C  0.13706826  0.28455818  0.27312934     0.03200
C239        C  0.27436924  0.25938103  0.25222865     0.10000
C240        C  0.22032666  0.26408586  0.20277512     0.35900
C241        C  0.11095100  0.30017095  0.29554135     0.39300
C242        C  0.29146607  0.22543282  0.26187461    -0.04200
C243        C  0.34504740  0.21769977  0.26310092     0.02900
C244        C  0.38203954  0.24248356  0.25222024    -0.03800
C245        C  0.36431168  0.27861690  0.24650797    -0.00100
C246        C  0.31108861  0.28634765  0.24541403    -0.02600
C247        C  0.25370707  0.19890503  0.27136325     0.36600
C248        C  0.40023370  0.30927585  0.24425267     0.40200
C249        C  0.36132770  0.18788578  0.27969140     0.39800
C250        C  0.29396766  0.32267987  0.23804702     0.36300
C251        C  0.21896721  0.28362253  0.29838108     0.37000
C252        C  0.11831460  0.29453536  0.20234872     0.40200
N253        N  0.37345867  0.16445736  0.29356233    -0.37800
N254        N  0.22337031  0.17791880  0.27896725    -0.39400
N255        N  0.42845930  0.33396205  0.24260642    -0.37200
N256        N  0.28030650  0.35158124  0.23212504    -0.39500
N257        N  0.24274042  0.25893138  0.18351031    -0.39300
N258        N  0.10195925  0.30702848  0.18331247    -0.37000
N259        N  0.09017931  0.31360964  0.31311073    -0.38000
N260        N  0.24154892  0.28805283  0.31766968    -0.39700
C261        C  0.94231051  0.46310149  0.25767157    -0.04600
C262        C  0.98082765  0.48246299  0.24355729     0.09500
C263        C  0.01797631  0.46258588  0.22929630    -0.02000
C264        C  0.01693223  0.42385847  0.22934795    -0.00200
C265        C  0.98127676  0.40422410  0.24537057    -0.03900
C266        C  0.94330102  0.42439193  0.25923069     0.03200
C267        C  0.98306612  0.52375883  0.24432254     0.10000
C268        C  0.05812894  0.48207805  0.21491625     0.35900
C269        C  0.90580379  0.40596705  0.27583834     0.39300
C270        C  0.99784379  0.54210249  0.26757069    -0.04200
C271        C  0.99882133  0.58076208  0.26860085     0.02900
C272        C  0.98803532  0.60152174  0.24610146    -0.03800
C273        C  0.97428241  0.58337828  0.22271238    -0.00100
C274        C  0.97055400  0.54469514  0.22196370    -0.02600
C275        C  0.01247411  0.52115434  0.29043156     0.36600
C276        C  0.96460688  0.60464341  0.19936039     0.40200
C277        C  0.00898208  0.59933285  0.29309685     0.39400
C278        C  0.95315131  0.52640806  0.19832894     0.36300
C279        C  0.90154469  0.48323944  0.27070699     0.37000
C280        C  0.05150347  0.40441730  0.21198530     0.40200
N281        N  0.01618944  0.61379817  0.31291969    -0.37800
N282        N  0.02423435  0.50440962  0.30865014    -0.39400
N283        N  0.95730472  0.62141236  0.18054291    -0.37200
N284        N  0.93919749  0.51168124  0.17952839    -0.39500
N285        N  0.09017656  0.49768677  0.20350044    -0.39300
N286        N  0.07916263  0.38917429  0.19797623    -0.37000
N287        N  0.87496236  0.39225399  0.28915755    -0.38000
N288        N  0.86900564  0.49938889  0.28099186    -0.39700
C289        C  0.95760065  0.89219990  0.40863324    -0.04600
C290        C  0.00302607  0.87421964  0.40103849     0.09500
C291        C  0.04939104  0.88072651  0.41470985    -0.02000
C292        C  0.05078279  0.90571907  0.43578674    -0.00200
C293        C  0.00517729  0.92438297  0.44361170    -0.03900
C294        C  0.95834526  0.91707742  0.42973125     0.03200
C295        C  0.00252118  0.84978887  0.37760781     0.10000
C296        C  0.09596020  0.86177256  0.40677782     0.35900
C297        C  0.91065135  0.93576985  0.43615087     0.39300
C298        C  0.01603007  0.86419113  0.35287681    -0.04200
C299        C  0.01495740  0.84145199  0.33062302     0.02900
C300        C  0.00060865  0.80425210  0.33301505    -0.03800
C301        C  0.98620093  0.79002111  0.35761362    -0.00100
C302        C  0.98718749  0.81272921  0.37993682    -0.02600
C303        C  0.02995715  0.90261904  0.35034479     0.36600
C304        C  0.97055454  0.75195401  0.35976455     0.40200
C305        C  0.02652016  0.85655758  0.30503551     0.39400
C306        C  0.97194357  0.79821601  0.40523938     0.36300
C307        C  0.91008310  0.88559130  0.39418277     0.37000
C308        C  0.09970630  0.91198380  0.44900577     0.40200
N309        N  0.03549644  0.86878194  0.28461520    -0.37800
N310        N  0.04089659  0.93331260  0.34844168    -0.39400
N311        N  0.95792807  0.72154563  0.36139038    -0.37200
N312        N  0.95959672  0.78675674  0.42544833    -0.39500
N313        N  0.13300300  0.84660887  0.40039929    -0.39300
N314        N  0.13899794  0.91699795  0.45929121    -0.37000
N315        N  0.87245342  0.95053631  0.44112215    -0.38000
N316        N  0.87227856  0.88033916  0.38262669    -0.39700
C317        C  0.03321009  0.90379024  0.09994425    -0.04600
C318        C  0.99988729  0.87308885  0.09757162     0.09500
C319        C  0.97164194  0.86761293  0.07428784    -0.02000
C320        C  0.97506617  0.89353021  0.05388876    -0.00200
C321        C  0.00633360  0.92525856  0.05681695    -0.03900
C322        C  0.03638287  0.92986396  0.07965981     0.03200
C323        C  0.99284732  0.84765036  0.12025683     0.10000
C324        C  0.93883443  0.83541392  0.07142691     0.35900
C325        C  0.06928441  0.96201919  0.08271349     0.39300
C326        C  0.96173081  0.85827799  0.14158927    -0.04200
C327        C  0.95885870  0.83629452  0.16422085     0.02900
C328        C  0.98624674  0.80294076  0.16545580    -0.03800
C329        C  0.01453091  0.79125951  0.14331260    -0.00100
C330        C  0.01859329  0.81382850  0.12097834    -0.02600
C331        C  0.93335715  0.89233456  0.14034224     0.36600
C332        C  0.03850040  0.75558741  0.14333882     0.40200
C333        C  0.92907893  0.84896963  0.18644350     0.39400
C334        C  0.05012809  0.80267635  0.09892856     0.36300
C335        C  0.06386649  0.90864492  0.12346096     0.37000
C336        C  0.94778898  0.88695708  0.02951157     0.40200
N337        N  0.90467475  0.85951185  0.20384621    -0.37800
N338        N  0.91079298  0.91949009  0.13926693    -0.39400
N339        N  0.05746542  0.72702709  0.14337984    -0.37200
N340        N  0.07530768  0.79385390  0.08130956    -0.39500
N341        N  0.91287418  0.80961708  0.06908247    -0.39300
N342        N  0.92647316  0.88171864  0.00995027    -0.37000
N343        N  0.09558110  0.98764657  0.08508350    -0.38000
N344        N  0.08829615  0.91242067  0.14223485    -0.39700
C345        C  0.02793751  0.17696367  0.37261237    -0.04600
C346        C  0.00921560  0.14063936  0.37051186     0.09500
C347        C  0.99031810  0.12776836  0.34625389    -0.02000
C348        C  0.99049509  0.15106947  0.32423838    -0.00200
C349        C  0.00794986  0.18766195  0.32650597    -0.03900
C350        C  0.02626375  0.20058326  0.35082584     0.03200
C351        C  0.00817071  0.11640146  0.39413540     0.10000
C352        C  0.96984294  0.09076201  0.34409612     0.35900
C353        C  0.04058909  0.23873532  0.35388574     0.39300
C354        C  0.97185004  0.12262916  0.41430844    -0.04200
C355        C  0.97235136  0.10110371  0.43720589     0.02900
C356        C  0.00824988  0.07240705  0.43977369    -0.03800
C357        C  0.04344065  0.06538333  0.41910273    -0.00100
C358        C  0.04398616  0.08774069  0.39661577    -0.02600
C359        C  0.93373274  0.15120339  0.41139333     0.36600
C360        C  0.07749464  0.03405163  0.42028662     0.40200
C361        C  0.93667978  0.10917462  0.45835608     0.39400
C362        C  0.08146796  0.08125015  0.37598079     0.36300
C363        C  0.04835805  0.19008954  0.39736913     0.37000
C364        C  0.97326236  0.13731003  0.29912608     0.40200
N365        N  0.90830095  0.11564063  0.47525329    -0.37800
N366        N  0.90338516  0.17402065  0.40901606    -0.39400
N367        N  0.10433920  0.00891774  0.42115957    -0.37200
N368        N  0.11131099  0.07596795  0.35951916    -0.39500
N369        N  0.95349109  0.06123743  0.34240702    -0.39300
N370        N  0.95962459  0.12592355  0.27914371    -0.37000
N371        N  0.05150153  0.26921237  0.35701337    -0.38000
N372        N  0.06447332  0.20037059  0.41719502    -0.39700
C373        C  0.98090157  0.19064213  0.12035766    -0.04600
C374        C  0.00502297  0.15618901  0.12131328     0.09500
C375        C  0.02852101  0.14447865  0.14470482    -0.02000
C376        C  0.02665829  0.16662584  0.16724563    -0.00200
C377        C  0.00302926  0.20126485  0.16628784    -0.03900
C378        C  0.98051277  0.21332757  0.14272852     0.03200
C379        C  0.00379757  0.13113944  0.09816596     0.10000
C380        C  0.05428590  0.10940355  0.14553933     0.35900
C381        C  0.95777790  0.24936590  0.14150275     0.39300
C382        C  0.04144870  0.13438122  0.07826408    -0.04200
C383        C  0.04270246  0.10872230  0.05757393     0.02900
C384        C  0.00595772  0.07968158  0.05662558    -0.03800
C385        C  0.96804887  0.07677068  0.07665554    -0.00100
C386        C  0.96683543  0.10255066  0.09716213    -0.02600
C387        C  0.07920636  0.16400740  0.07932010     0.36600
C388        C  0.93178265  0.04614481  0.07710805     0.40200
C389        C  0.08156605  0.11260459  0.03720980     0.39400
C390        C  0.92798717  0.09936151  0.11762643     0.36300
C391        C  0.95599771  0.20244320  0.09646128     0.37000
C392        C  0.04702242  0.15312686  0.19177149     0.40200
N393        N  0.11278029  0.11573913  0.02106108    -0.37800
N394        N  0.10916166  0.18774736  0.08022104    -0.39400
N395        N  0.90298373  0.02166791  0.07754451    -0.37200
N396        N  0.89710268  0.09686255  0.13398402    -0.39500
N397        N  0.07491498  0.08144913  0.14604391    -0.39300
N398        N  0.06308878  0.14233963  0.21139752    -0.37000
N399        N  0.93971835  0.27819331  0.14056054    -0.38000
N400        N  0.93601663  0.21178331  0.07739184    -0.39700
C401        C  0.48653272  0.58153092  0.39778990    -0.04600
C402        C  0.51647466  0.61401600  0.39723272     0.09500
C403        C  0.54946749  0.62252420  0.41845220    -0.02000
C404        C  0.55101082  0.59926989  0.44053959    -0.00200
C405        C  0.52046599  0.56696811  0.44117265    -0.03900
C406        C  0.48987564  0.55750455  0.41921718     0.03200
C407        C  0.51326524  0.63883706  0.37398345     0.10000
C408        C  0.58169203  0.65523153  0.41754122     0.35900
C409        C  0.46394805  0.52207557  0.41796319     0.39300
C410        C  0.48368828  0.67105909  0.37526038    -0.04200
C411        C  0.47851374  0.69342913  0.35292203     0.02900
C412        C  0.50228830  0.68349052  0.32907106    -0.03800
C413        C  0.53098831  0.65087240  0.32770399    -0.00100
C414        C  0.53686258  0.62879117  0.35011577    -0.02600
C415        C  0.45787596  0.68080034  0.39948259     0.36600
C416        C  0.55289405  0.63942015  0.30293006     0.40200
C417        C  0.44952137  0.72708218  0.35456923     0.39400
C418        C  0.56657543  0.59537371  0.34859892     0.36300
C419        C  0.45163132  0.57309534  0.37636399     0.37000
C420        C  0.58308546  0.60898744  0.46279056     0.40200
N421        N  0.42619596  0.75389500  0.35587858    -0.37800
N422        N  0.43726151  0.68845353  0.41882808    -0.39400
N423        N  0.57025364  0.63017526  0.28313266    -0.37200
N424        N  0.58997525  0.56857744  0.34747714    -0.39500
N425        N  0.60749343  0.68130437  0.41684325    -0.39300
N426        N  0.60862867  0.61662360  0.48058838    -0.37000
N427        N  0.44391035  0.49363952  0.41672060    -0.38000
N428        N  0.42367294  0.56658890  0.35929255    -0.39700
C429        C  0.55542596  0.61734353  0.08854886    -0.04600
C430        C  0.50834604  0.62484939  0.10127705     0.09500
C431        C  0.46230816  0.60858219  0.09199181    -0.02000
C432        C  0.46326927  0.58411441  0.07052347    -0.00200
C433        C  0.51098881  0.57491353  0.05815268    -0.03900
C434        C  0.55707333  0.59248254  0.06731308     0.03200
C435        C  0.50740572  0.64930282  0.12495182     0.10000
C436        C  0.41367632  0.61678876  0.10489489     0.35900
C437        C  0.60679450  0.58551543  0.05514882     0.39300
C438        C  0.49257318  0.68629962  0.12271558    -0.04200
C439        C  0.49105651  0.70896129  0.14512919     0.02900
C440        C  0.50439357  0.69486302  0.16984487    -0.03800
C441        C  0.51953977  0.65804213  0.17208651    -0.00100
C442        C  0.52114794  0.63532133  0.14973936    -0.02600
C443        C  0.47929975  0.70102536  0.09729994     0.36600
C444        C  0.53224965  0.64348053  0.19761317     0.40200
C445        C  0.47684289  0.74707106  0.14287008     0.39400
C446        C  0.53666656  0.59745573  0.15223305     0.36300
C447        C  0.60242792  0.63551701  0.09741642     0.37000
C448        C  0.41449809  0.56841338  0.06174387     0.40200
N449        N  0.46563452  0.77756480  0.14114282    -0.37800
N450        N  0.46872273  0.71268505  0.07697453    -0.39400
N451        N  0.54235401  0.63198337  0.21804975    -0.37200
N452        N  0.54921586  0.56726233  0.15418447    -0.39500
N453        N  0.37490965  0.62337879  0.11515820    -0.39300
N454        N  0.37538726  0.55615305  0.05481031    -0.37000
N455        N  0.64669182  0.58005492  0.04566039    -0.38000
N456        N  0.63975830  0.65016359  0.10450912    -0.39700
C457        C  0.48078328  0.36239535  0.42657737    -0.04600
C458        C  0.51115587  0.36805257  0.40398053     0.09500
C459        C  0.54621926  0.39783999  0.40277068    -0.02000
C460        C  0.54980185  0.42267415  0.42380674    -0.00200
C461        C  0.51800569  0.41787304  0.44613606    -0.03900
C462        C  0.48418405  0.38721568  0.44764610     0.03200
C463        C  0.50426397  0.34390507  0.38069835     0.10000
C464        C  0.57747238  0.40343868  0.37944969     0.35900
C465        C  0.45327081  0.38092389  0.47099480     0.39300
C466        C  0.47002049  0.35427937  0.36068933    -0.04200
C467        C  0.46702716  0.33367913  0.33743545     0.02900
C468        C  0.49645554  0.30146090  0.33459604    -0.03800
C469        C  0.52829318  0.28995902  0.35545630    -0.00100
C470        C  0.53323948  0.31166026  0.37813459    -0.02600
C471        C  0.43834423  0.38654511  0.36399363     0.36600
C472        C  0.55509898  0.25537009  0.35382803     0.40200
C473        C  0.43537826  0.34679489  0.31612354     0.39400
C474        C  0.56884517  0.30127475  0.39864971     0.36300
C475        C  0.44528079  0.33141286  0.42782529     0.37000
C476        C  0.58425425  0.45417980  0.42177947     0.40200
N477        N  0.40977999  0.35776863  0.29938799    -0.37800
N478        N  0.41289985  0.41214530  0.36676082    -0.39400
N479        N  0.57641513  0.22771848  0.35252235    -0.37200
N480        N  0.59749963  0.29315032  0.41495687    -0.39500
N481        N  0.60218537  0.40782773  0.36077293    -0.39300
N482        N  0.61172426  0.47930743  0.42012844    -0.37000
N483        N  0.42868051  0.37588945  0.48963593    -0.38000
N484        N  0.41699434  0.30666897  0.42873907    -0.39700
C485        C  0.46188279  0.38585740  0.09259228    -0.04600
C486        C  0.50565631  0.36432432  0.09748919     0.09500
C487        C  0.54972877  0.36788204  0.08144221    -0.02000
C488        C  0.55054581  0.39356135  0.06083131    -0.00200
C489        C  0.50834394  0.41767403  0.05720646    -0.03900
C490        C  0.46352668  0.41312052  0.07311093     0.03200
C491        C  0.50659387  0.34049851  0.12118972     0.10000
C492        C  0.59467583  0.34555063  0.08655932     0.35900
C493        C  0.41947555  0.43714937  0.07044562     0.39300
C494        C  0.49627548  0.30256776  0.11937083    -0.04200
C495        C  0.49340412  0.28109951  0.14231145     0.02900
C496        C  0.50127454  0.29743144  0.16697056    -0.03800
C497        C  0.51120978  0.33539441  0.16870013    -0.00100
C498        C  0.51479893  0.35674215  0.14587035    -0.02600
C499        C  0.48854962  0.28585749  0.09393861     0.36600
C500        C  0.51476497  0.35318637  0.19392070     0.40200
C501        C  0.48130819  0.24237339  0.14079647     0.39400
C502        C  0.52663617  0.39562970  0.14770916     0.36300
C503        C  0.41526060  0.38019088  0.10805328     0.37000
C504        C  0.59439590  0.39409417  0.04303465     0.40200
N505        N  0.47124268  0.21146777  0.13964509    -0.37800
N506        N  0.48275993  0.27265449  0.07355020    -0.39400
N507        N  0.51677222  0.36913758  0.21345265    -0.37200
N508        N  0.53618777  0.42659864  0.14909604    -0.39500
N509        N  0.63053452  0.32779386  0.09073772    -0.39300
N510        N  0.62924278  0.39421170  0.02876006    -0.37000
N511        N  0.38425943  0.45625688  0.06847010    -0.38000
N512        N  0.37808242  0.37540247  0.12030354    -0.39700
O513        O  0.56028015  0.53203471  0.97534515    -0.70900
O514        O  0.55397090  0.46019433  0.52911346    -0.71100
O515        O  0.55893470  0.45876187  0.97660183    -0.71000
O516        O  0.55523647  0.53374652  0.52833962    -0.71000
O517        O  0.47187664  0.53392184  0.52627801    -0.71000
O518        O  0.47495963  0.45868434  0.97502253    -0.71000
O519        O  0.47036211  0.46018381  0.52707854    -0.70900
O520        O  0.47632626  0.53158849  0.97355816    -0.71100
V521        V  0.55553516  0.49625823  0.00237056     1.35200
V522        V  0.47505657  0.49628278  0.50059614     1.35200
C523        C  0.51918434  0.54292560  0.96460959     0.78300
C524        C  0.51103374  0.44729966  0.53695910     0.78400
C525        C  0.51743053  0.44608626  0.96696087     0.78300
C526        C  0.51284395  0.54655909  0.53654486     0.78200
O527        O  0.04894455  0.96576305  0.52673231    -0.70900
O528        O  0.04935912  0.03832496  0.97368441    -0.71100
O529        O  0.04915930  0.03928651  0.52660558    -0.71000
O530        O  0.04849693  0.96540483  0.97395046    -0.71000
O531        O  0.96500857  0.96361810  0.97542522    -0.71000
O532        O  0.96526651  0.04007387  0.52543227    -0.71000
O533        O  0.96541648  0.03648265  0.97272634    -0.70900
O534        O  0.96492616  0.96666108  0.52765244    -0.71100
V535        V  0.04746169  0.00226560  0.50031406     1.35200
V536        V  0.96683114  0.00186419  0.50037324     1.35200
C537        C  0.00682947  0.95381495  0.53619452     0.78300
C538        C  0.00757451  0.04847082  0.96330452     0.78400
C539        C  0.00703339  0.05210546  0.53513767     0.78300
C540        C  0.00641710  0.95205778  0.96538611     0.78200
C541        C  0.94403850  0.26480425  0.75014880     0.30900
C542        C  0.05019896  0.27317639  0.74948008     0.30900
C543        C  0.96497701  0.30471676  0.75125492    -0.05300
C544        C  0.97392712  0.24570536  0.77210520    -0.06100
C545        C  0.97174169  0.25134753  0.72517095    -0.06000
C546        C  0.01869238  0.30863747  0.75161193    -0.05300
C547        C  0.02750196  0.24945283  0.77175194    -0.06100
C548        C  0.02567890  0.25389008  0.72539440    -0.06000
C549        C  0.02990767  0.34553584  0.75053008    -0.31400
N550        N  0.98504415  0.36455788  0.74818885     0.15100
C551        C  0.94533900  0.33960180  0.74803829    -0.31400
H552        H  0.90508985  0.34607136  0.74473363     0.17100
C553        C  0.04606668  0.22785045  0.79181867    -0.30400
N554        N  0.00521110  0.21203835  0.80440348     0.13900
C555        C  0.96104326  0.22262361  0.79246036    -0.30300
C556        C  0.04272222  0.23459365  0.70381494    -0.30600
N557        N  0.00133617  0.22391434  0.68940354     0.14400
H558        H  0.08226576  0.22758096  0.69915355     0.17000
C559        C  0.95784813  0.23487618  0.70184197    -0.30600
H560        H  0.91905999  0.22947369  0.69490681     0.17000
H561        H  0.92248064  0.21368260  0.79796529     0.17000
H562        H  0.06835830  0.35750388  0.75071062     0.17100
H563        H  0.08620051  0.22333056  0.79669788     0.17000
C564        C  0.04598064  0.73690399  0.74884321     0.30900
C565        C  0.93939265  0.73777888  0.75074966     0.30900
C566        C  0.01846121  0.69878882  0.74790378    -0.05300
C567        C  0.02167848  0.75448984  0.77305694    -0.06100
C568        C  0.01843172  0.75608157  0.72586401    -0.06000
C569        C  0.96406083  0.69913471  0.74960256    -0.05300
C570        C  0.96816681  0.75387645  0.77454774    -0.06100
C571        C  0.96485045  0.75681514  0.72729032    -0.06000
C572        C  0.94792327  0.66287947  0.75034876    -0.31400
N573        N  0.98963399  0.64104595  0.74719961     0.15100
C574        C  0.03278035  0.66250163  0.74561319    -0.31400
H575        H  0.07168721  0.65232895  0.74318763     0.17100
C576        C  0.95499307  0.76948484  0.79824076    -0.30400
N577        N  0.99885103  0.78129678  0.81015932     0.13900
C578        C  0.03992906  0.77207522  0.79508998    -0.30300
C579        C  0.94680284  0.77280497  0.70475355    -0.30600
N580        N  0.98787350  0.78219673  0.68953389     0.14400
H581        H  0.90670845  0.77694760  0.69968849     0.17000
C582        C  0.03150780  0.77091576  0.70179865    -0.30600
H583        H  0.07015081  0.77368174  0.69374913     0.17000
H584        H  0.07988547  0.77849814  0.79957148     0.17000
H585        H  0.90890438  0.65275761  0.75326093     0.17100
H586        H  0.91632526  0.77369441  0.80574007     0.17000
C587        C  0.44175545  0.76140748  0.75208033     0.30900
C588        C  0.54781275  0.76886470  0.75267558     0.30900
C589        C  0.46321164  0.80122072  0.75255917    -0.05300
C590        C  0.46990241  0.74295102  0.77488597    -0.06100
C591        C  0.47056312  0.74646632  0.72777557    -0.06000
C592        C  0.51691187  0.80482339  0.75337632    -0.05300
C593        C  0.52344900  0.74597903  0.77496360    -0.06100
C594        C  0.52449576  0.74858828  0.72872773    -0.06000
C595        C  0.52860766  0.84163756  0.75050697    -0.31400
N596        N  0.48398817  0.86070611  0.74717585     0.15100
C597        C  0.44405972  0.83594774  0.74780161    -0.31400
H598        H  0.40405105  0.84240791  0.74399869     0.17100
C599        C  0.54080308  0.72253776  0.79419582    -0.30400
N600        N  0.49946613  0.70740346  0.80667009     0.13900
C601        C  0.45584186  0.71930333  0.79481253    -0.30300
C602        C  0.54269433  0.72874896  0.70760893    -0.30600
N603        N  0.50190353  0.71777447  0.69282376     0.14400
H604        H  0.58257415  0.72213398  0.70340518     0.17000
C605        C  0.45782642  0.72915699  0.70455002    -0.30600
H606        H  0.41930606  0.72367989  0.69714794     0.17000
H607        H  0.41693472  0.71053303  0.79982451     0.17000
H608        H  0.56717864  0.85347062  0.75002242     0.17100
H609        H  0.58056872  0.71633385  0.79870642     0.17000
C610        C  0.44098810  0.23455346  0.75118757     0.30900
C611        C  0.54788279  0.23209748  0.75203893     0.30900
C612        C  0.46462246  0.19544739  0.75128673    -0.05300
C613        C  0.46947739  0.25069166  0.72712848    -0.06100
C614        C  0.46823641  0.25268785  0.77443845    -0.06000
C615        C  0.51928620  0.19426282  0.75188613    -0.05300
C616        C  0.52333842  0.24967464  0.72761350    -0.06100
C617        C  0.52159712  0.25190579  0.77464353    -0.06000
C618        C  0.53282162  0.15827169  0.74710511    -0.31400
N619        N  0.48915295  0.13764036  0.74423978     0.15100
C620        C  0.44772660  0.16014556  0.74554820    -0.31400
H621        H  0.40823491  0.15134544  0.74191711     0.17100
C622        C  0.54064982  0.26490699  0.70439524    -0.30400
N623        N  0.49912503  0.27561125  0.69032116     0.13900
C624        C  0.45549428  0.26616487  0.70352997    -0.30300
C625        C  0.53783071  0.27008387  0.79674678    -0.30600
N626        N  0.49555589  0.28116454  0.81032093     0.14400
H627        H  0.57760046  0.27505887  0.80248494     0.17000
C628        C  0.45275498  0.27032878  0.79691255    -0.30600
H629        H  0.41322937  0.27480055  0.80309808     0.17000
H630        H  0.41666290  0.27136325  0.69679808     0.17000
H631        H  0.57159207  0.14780278  0.74508597     0.17100
H632        H  0.58046788  0.26873762  0.69829599     0.17000
C633        C  0.44339858  0.96008368  0.75487262    -0.04600
C634        C  0.48043617  0.97856133  0.73915460     0.09500
C635        C  0.51558724  0.95756746  0.72437168    -0.02000
C636        C  0.51434277  0.91878116  0.72569518    -0.00200
C637        C  0.48025560  0.90024098  0.74314995    -0.03900
C638        C  0.44384628  0.92141347  0.75726037     0.03200
C639        C  0.48416050  0.02000309  0.73966922     0.10000
C640        C  0.55423242  0.97592785  0.70830972     0.35900
C641        C  0.40738589  0.90399358  0.77495471     0.39300
C642        C  0.50058217  0.03802284  0.76276299    -0.04200
C643        C  0.50055331  0.07664053  0.76435476     0.02900
C644        C  0.48720581  0.09803224  0.74247068    -0.03800
C645        C  0.47167995  0.08031743  0.71919543    -0.00100
C646        C  0.46976162  0.04148740  0.71780351    -0.02600
C647        C  0.51779414  0.01672195  0.78499745     0.36600
C648        C  0.45763000  0.10226837  0.69677359     0.40200
C649        C  0.51101898  0.09439417  0.78913522     0.39400
C650        C  0.45282226  0.02371130  0.69391342     0.36300
C651        C  0.40524644  0.98115078  0.76913645     0.37000
C652        C  0.54681715  0.89809033  0.70810248     0.40200
N653        N  0.51823081  0.10802997  0.80925372    -0.37800
N654        N  0.53156150  0.99967074  0.80269428    -0.39400
N655        N  0.44633510  0.11993307  0.67892255    -0.37200
N656        N  0.43968485  0.00956651  0.67474157    -0.39500
N657        N  0.58511548  0.99057177  0.69551432    -0.39300
N658        N  0.57271663  0.88217990  0.69363726    -0.37000
N659        N  0.37732124  0.89108159  0.78909669    -0.38000
N660        N  0.37503932  0.99803999  0.78057646    -0.39700
C661        C  0.69045337  0.77418917  0.73028027    -0.04600
C662        C  0.71551991  0.76462272  0.75374230     0.09500
C663        C  0.68795066  0.76635740  0.77750315    -0.02000
C664        C  0.63476112  0.77432624  0.77728061    -0.00200
C665        C  0.60718452  0.77415320  0.75329962    -0.03900
C666        C  0.63654018  0.77966755  0.73009821     0.03200
C667        C  0.77218770  0.75702030  0.75351009     0.10000
C668        C  0.71423355  0.75996120  0.80210057     0.35900
C669        C  0.61256118  0.79326304  0.70647310     0.39300
C670        C  0.80734349  0.78490741  0.76053950    -0.04200
C671        C  0.86085147  0.77933890  0.75789608     0.02900
C672        C  0.88035488  0.74424562  0.75073275    -0.03800
C673        C  0.84462426  0.71924515  0.73931054    -0.00100
C674        C  0.79090684  0.72434619  0.74245992    -0.02600
C675        C  0.78829690  0.81999931  0.76959196     0.36600
C676        C  0.86142347  0.69373748  0.71943817     0.40200
C677        C  0.89481517  0.81120525  0.75971385     0.39400
C678        C  0.75468371  0.69661702  0.73324147     0.36300
C679        C  0.72047880  0.77894263  0.70645396     0.37000
C680        C  0.61029827  0.78672612  0.80122976     0.40200
N681        N  0.92164023  0.83670161  0.76116475    -0.37800
N682        N  0.77311260  0.84787607  0.77694332    -0.39400
N683        N  0.87381464  0.67398360  0.70291118    -0.37200
N684        N  0.72574182  0.67451412  0.72592897    -0.39500
N685        N  0.73529808  0.75468240  0.82167635    -0.39300
N686        N  0.59103489  0.79681632  0.82035583    -0.37000
N687        N  0.59387937  0.80355189  0.68731975    -0.38000
N688        N  0.74473885  0.78283433  0.68757388    -0.39700
C689        C  0.18784521  0.76954308  0.73847327    -0.04600
C690        C  0.21581196  0.74346822  0.75269274     0.09500
C691        C  0.18866220  0.71764838  0.76811219    -0.02000
C692        C  0.13403862  0.71558214  0.76708794    -0.00200
C693        C  0.10580105  0.73914311  0.75025917    -0.03900
C694        C  0.13350522  0.76981164  0.73992608     0.03200
C695        C  0.27356049  0.74637784  0.75415225     0.10000
C696        C  0.21695058  0.69463896  0.78615730     0.35900
C697        C  0.10838889  0.80476193  0.73632283     0.39300
C698        C  0.29712469  0.77441314  0.76910752    -0.04200
C699        C  0.35154148  0.77767262  0.76993653     0.02900
C700        C  0.38272166  0.75503507  0.75390506    -0.03800
C701        C  0.35910991  0.72222458  0.74449434    -0.00100
C702        C  0.30481289  0.71929759  0.74279910    -0.02600
C703        C  0.26535103  0.79878561  0.78461214     0.36600
C704        C  0.38924709  0.68934762  0.74070522     0.40200
C705        C  0.37502284  0.79951795  0.79050040     0.39400
C706        C  0.28112436  0.68779980  0.73011631     0.36300
C707        C  0.21500436  0.79716434  0.72315428     0.37000
C708        C  0.10744986  0.69322351  0.78638311     0.40200
N709        N  0.39385823  0.81576906  0.80749825    -0.37800
N710        N  0.23986092  0.81811810  0.79697976    -0.39400
N711        N  0.41298667  0.66290752  0.73799816    -0.37200
N712        N  0.26222892  0.66258883  0.72010924    -0.39500
N713        N  0.23965467  0.67654397  0.80063305    -0.39300
N714        N  0.08692414  0.67598392  0.80238203    -0.37000
N715        N  0.08897204  0.83295332  0.73380957    -0.38000
N716        N  0.23658001  0.81901063  0.71074059    -0.39700
C717        C  0.80000967  0.27413265  0.77061161    -0.04600
C718        C  0.77585325  0.24686122  0.75507532     0.09500
C719        C  0.80712009  0.22189607  0.74142620    -0.02000
C720        C  0.86142921  0.22530407  0.74246721    -0.00200
C721        C  0.88507314  0.25762945  0.75271349    -0.03900
C722        C  0.85439186  0.27870846  0.77006621     0.03200
C723        C  0.71789302  0.24273174  0.75481267     0.10000
C724        C  0.78358300  0.19212500  0.72670118     0.35900
C725        C  0.87890246  0.30062435  0.79028896     0.39300
C726        C  0.68728399  0.27077086  0.74441075    -0.04200
C727        C  0.63306003  0.26865064  0.74646716     0.02900
C728        C  0.60775207  0.23541405  0.75389741    -0.03800
C729        C  0.63842632  0.20967859  0.76753437    -0.00100
C730        C  0.69313957  0.21279442  0.76734807    -0.02600
C731        C  0.71151246  0.30252447  0.73221438     0.36600
C732        C  0.61467209  0.18431887  0.78576464     0.40200
C733        C  0.60491808  0.30268657  0.74586487     0.39400
C734        C  0.72398130  0.18592650  0.78101979     0.36300
C735        C  0.76905901  0.29676840  0.78781894     0.37000
C736        C  0.89164938  0.19291448  0.73711738     0.40200
N737        N  0.58336097  0.33022558  0.74657292    -0.37800
N738        N  0.73077144  0.32783183  0.72247160    -0.39400
N739        N  0.59685993  0.16456135  0.80107994    -0.37200
N740        N  0.74873086  0.16440750  0.79172794    -0.39500
N741        N  0.76483993  0.16831801  0.71501723    -0.39300
N742        N  0.91518855  0.16677778  0.73289333    -0.37000
N743        N  0.89873491  0.31705904  0.80690798    -0.38000
N744        N  0.74438378  0.31496704  0.80144169    -0.39700
C745        C  0.19090474  0.27842548  0.77412788    -0.04600
C746        C  0.21777532  0.26810320  0.75122485     0.09500
C747        C  0.19218465  0.27037837  0.72695228    -0.02000
C748        C  0.13925841  0.27913027  0.72617075    -0.00200
C749        C  0.10962615  0.27886678  0.74951822    -0.03900
C750        C  0.13703572  0.28457289  0.77315261     0.03200
C751        C  0.27433742  0.25941429  0.75223842     0.10000
C752        C  0.22027914  0.26412130  0.70279030     0.35900
C753        C  0.11091958  0.30018194  0.79556627     0.39300
C754        C  0.29143681  0.22546144  0.76187417    -0.04200
C755        C  0.34501780  0.21772635  0.76309159     0.02900
C756        C  0.38200550  0.24250891  0.75220555    -0.03800
C757        C  0.36427902  0.27864574  0.74650278    -0.00100
C758        C  0.31105557  0.28638181  0.74542356    -0.02600
C759        C  0.25368141  0.19892991  0.77136114     0.36600
C760        C  0.40020486  0.30930180  0.74424246     0.40200
C761        C  0.36130524  0.18791232  0.77968015     0.39800
C762        C  0.29393328  0.32271971  0.73807181     0.36300
C763        C  0.21894390  0.28364931  0.79839744     0.37000
C764        C  0.11825835  0.29455405  0.70237262     0.40200
N765        N  0.37344271  0.16448409  0.79354974    -0.37800
N766        N  0.22334800  0.17793997  0.77896324    -0.39400
N767        N  0.42843409  0.33398533  0.74259092    -0.37200
N768        N  0.28027119  0.35162610  0.73216306    -0.39500
N769        N  0.24268609  0.25896897  0.68352321    -0.39300
N770        N  0.10189207  0.30704064  0.68333662    -0.37000
N771        N  0.09014751  0.31361919  0.81313620    -0.38000
N772        N  0.24152991  0.28808203  0.81768442    -0.39700
C773        C  0.94227512  0.46310843  0.75767103    -0.04600
C774        C  0.98079525  0.48246438  0.74355487     0.09500
C775        C  0.01794156  0.46258203  0.72929630    -0.02000
C776        C  0.01689037  0.42385481  0.72935091    -0.00200
C777        C  0.98123213  0.40422600  0.74537539    -0.03900
C778        C  0.94325860  0.42439892  0.75923302     0.03200
C779        C  0.98303841  0.52376009  0.74431499     0.10000
C780        C  0.05810080  0.48206863  0.71491704     0.35900
C781        C  0.90575623  0.40597902  0.77584047     0.39300
C782        C  0.99781660  0.54210832  0.76756115    -0.04200
C783        C  0.99879359  0.58076801  0.76858730     0.02900
C784        C  0.98801243  0.60152278  0.74608497    -0.03800
C785        C  0.97425699  0.58337487  0.72269815    -0.00100
C786        C  0.97052779  0.54469169  0.72195364    -0.02600
C787        C  0.01245097  0.52116485  0.79042349     0.36600
C788        C  0.96457510  0.60463570  0.69934488     0.40200
C789        C  0.00894480  0.59934376  0.79308239     0.39400
C790        C  0.95312827  0.52639981  0.69832015     0.36300
C791        C  0.90151542  0.48325225  0.77070672     0.37000
C792        C  0.05145639  0.40440833  0.71198880     0.40200
N793        N  0.01614209  0.61381314  0.81290472    -0.37800
N794        N  0.02421603  0.50442385  0.80864308    -0.39400
N795        N  0.95726600  0.62140138  0.68052661    -0.37200
N796        N  0.93917808  0.51166938  0.67952038    -0.39500
N797        N  0.09015440  0.49767303  0.70350252    -0.39300
N798        N  0.07911133  0.38916272  0.69797913    -0.37000
N799        N  0.87491083  0.39226908  0.78915896    -0.38000
N800        N  0.86898239  0.49940686  0.78099222    -0.39700
C801        C  0.95760092  0.89216690  0.90861996    -0.04600
C802        C  0.00302021  0.87415990  0.90104811     0.09500
C803        C  0.04936342  0.88063394  0.91474571    -0.02000
C804        C  0.05074273  0.90562527  0.93582309    -0.00200
C805        C  0.00514714  0.92432138  0.94362077    -0.03900
C806        C  0.95833448  0.91704497  0.92971756     0.03200
C807        C  0.00253727  0.84973638  0.87761402     0.10000
C808        C  0.09592242  0.86164597  0.90684109     0.35900
C809        C  0.91065468  0.93577123  0.93611263     0.39300
C810        C  0.01612500  0.86413686  0.85289327    -0.04200
C811        C  0.01506940  0.84140580  0.83063518     0.02900
C812        C  0.00066651  0.80421400  0.83301366    -0.03800
C813        C  0.98618663  0.78998486  0.85760241    -0.00100
C814        C  0.98715047  0.81268599  0.87992908    -0.02600
C815        C  0.03011524  0.90255570  0.85037556     0.36600
C816        C  0.97048707  0.75192666  0.85973974     0.40200
C817        C  0.02669520  0.85651505  0.80505574     0.39400
C818        C  0.97182727  0.79817567  0.90522048     0.36300
C819        C  0.91010330  0.88558461  0.89414716     0.37000
C820        C  0.09964142  0.91185262  0.94907391     0.40200
N821        N  0.03572021  0.86874243  0.78464167    -0.37800
N822        N  0.04110654  0.93324170  0.84848378    -0.39400
N823        N  0.95781798  0.72152575  0.86135411    -0.37200
N824        N  0.95941668  0.78671861  0.92542028    -0.39500
N825        N  0.13295646  0.84645432  0.90048426    -0.39300
N826        N  0.13891338  0.91683681  0.95938524    -0.37000
N827        N  0.87246851  0.95056455  0.94106512    -0.38000
N828        N  0.87231411  0.88035260  0.88257395    -0.39700
C829        C  0.03321401  0.90385810  0.59995338    -0.04600
C830        C  0.99988112  0.87316106  0.59758734     0.09500
C831        C  0.97162880  0.86768288  0.57430578    -0.02000
C832        C  0.97505961  0.89359199  0.55390155    -0.00200
C833        C  0.00634045  0.92531514  0.55682221    -0.03900
C834        C  0.03639427  0.92992324  0.57966355     0.03200
C835        C  0.99285135  0.84772197  0.62027329     0.10000
C836        C  0.93880953  0.83548848  0.57145175     0.35900
C837        C  0.06931360  0.96207115  0.58270913     0.39300
C838        C  0.96177386  0.85835789  0.64161852    -0.04200
C839        C  0.95890227  0.83636388  0.66424507     0.02900
C840        C  0.98625290  0.80299370  0.66546266    -0.03800
C841        C  0.01450147  0.79130858  0.64330943    -0.00100
C842        C  0.01856303  0.81388578  0.62097968    -0.02600
C843        C  0.93343904  0.89243216  0.64038963     0.36600
C844        C  0.03843486  0.75562403  0.64332135     0.40200
C845        C  0.92916163  0.84904247  0.68648007     0.39400
C846        C  0.05006204  0.80272608  0.59891886     0.36300
C847        C  0.06387610  0.90871629  0.62346785     0.37000
C848        C  0.94777962  0.88701306  0.52952602     0.40200
N849        N  0.90478908  0.85958836  0.70389307    -0.37800
N850        N  0.91090667  0.91960229  0.63932947    -0.39400
N851        N  0.05737072  0.72705385  0.64335176    -0.37200
N852        N  0.07521279  0.79389670  0.58129099    -0.39500
N853        N  0.91284095  0.80969472  0.56911332    -0.39300
N854        N  0.92646201  0.88176868  0.50996596    -0.37000
N855        N  0.09562569  0.98769188  0.58507225    -0.38000
N856        N  0.08830988  0.91249606  0.64224008    -0.39700
C857        C  0.02789335  0.17692667  0.87262935    -0.04600
C858        C  0.00913084  0.14061367  0.87052412     0.09500
C859        C  0.99021211  0.12776068  0.84626623    -0.02000
C860        C  0.99040737  0.15106867  0.82425444    -0.00200
C861        C  0.00790323  0.18765186  0.82652567    -0.03900
C862        C  0.02624467  0.20055394  0.85084593     0.03200
C863        C  0.00808094  0.11636451  0.89414125     0.10000
C864        C  0.96969834  0.09076517  0.84410500     0.35900
C865        C  0.04063259  0.23869386  0.85390945     0.39300
C866        C  0.97174601  0.12257411  0.91431022    -0.04200
C867        C  0.97224230  0.10103606  0.93720186     0.02900
C868        C  0.00816379  0.07235348  0.93977105    -0.03800
C869        C  0.04337160  0.06534958  0.91910385    -0.00100
C870        C  0.04390889  0.08771173  0.89661939    -0.02600
C871        C  0.93362168  0.15114393  0.91139723     0.36600
C872        C  0.07745633  0.03403497  0.92028978     0.40200
C873        C  0.93654037  0.10907925  0.95834453     0.39400
C874        C  0.08139531  0.08123503  0.87598429     0.36300
C875        C  0.04833180  0.19003200  0.89738775     0.37000
C876        C  0.97315781  0.13732230  0.79914171     0.40200
N877        N  0.90813544  0.11552146  0.97523528    -0.37800
N878        N  0.90326779  0.17395741  0.90902207    -0.39400
N879        N  0.10432741  0.00891541  0.92116516    -0.37200
N880        N  0.11124153  0.07596434  0.85952218    -0.39500
N881        N  0.95331384  0.06124968  0.84241363    -0.39300
N882        N  0.95950668  0.12594268  0.77915975    -0.37000
N883        N  0.05160044  0.26916088  0.85703980    -0.38000
N884        N  0.06446244  0.20029519  0.91721515    -0.39700
C885        C  0.98089986  0.19066292  0.62037785    -0.04600
C886        C  0.00504586  0.15621852  0.62132822     0.09500
C887        C  0.02854557  0.14450688  0.64471890    -0.02000
C888        C  0.02666404  0.16664524  0.66726348    -0.00200
C889        C  0.00301693  0.20127828  0.66631012    -0.03900
C890        C  0.98049265  0.21334054  0.64275244     0.03200
C891        C  0.00383044  0.13117362  0.59817866     0.10000
C892        C  0.05432806  0.10943820  0.64554920     0.35900
C893        C  0.95772537  0.24936894  0.64153272     0.39300
C894        C  0.04149150  0.13441645  0.57828177    -0.04200
C895        C  0.04275404  0.10875935  0.55759053     0.02900
C896        C  0.00600691  0.07972052  0.55663582    -0.03800
C897        C  0.96808834  0.07680897  0.57666131    -0.00100
C898        C  0.96686540  0.10258777  0.59716822    -0.02600
C899        C  0.07924544  0.16404456  0.57934223     0.36600
C900        C  0.93182021  0.04618417  0.57710913     0.40200
C901        C  0.08162822  0.11264210  0.53723168     0.39400
C902        C  0.92800062  0.09940305  0.61762496     0.36300
C903        C  0.95598755  0.20246181  0.59648320     0.37000
C904        C  0.04702158  0.15314061  0.69178924     0.40200
N905        N  0.11285096  0.11577693  0.52108717    -0.37800
N906        N  0.10919696  0.18778672  0.58024601    -0.39400
N907        N  0.90301905  0.02170852  0.57754265    -0.37200
N908        N  0.89710225  0.09690985  0.63397622    -0.39500
N909        N  0.07497151  0.08148903  0.64605074    -0.39300
N910        N  0.06308112  0.14234843  0.71141530    -0.37000
N911        N  0.93963740  0.27818748  0.64059569    -0.38000
N912        N  0.93599893  0.21179958  0.57741527    -0.39700
C913        C  0.48651478  0.58148212  0.89779689    -0.04600
C914        C  0.51642401  0.61398306  0.89724996     0.09500
C915        C  0.54938444  0.62250501  0.91847998    -0.02000
C916        C  0.55092938  0.59924725  0.94056559    -0.00200
C917        C  0.52042374  0.56692693  0.94118592    -0.03900
C918        C  0.48986459  0.55745213  0.91922199     0.03200
C919        C  0.51321712  0.63880605  0.87400065     0.10000
C920        C  0.58157358  0.65523023  0.91758201     0.35900
C921        C  0.46397604  0.52200964  0.91795825     0.39300
C922        C  0.48364185  0.67102921  0.87527697    -0.04200
C923        C  0.47847818  0.69340365  0.85293981     0.02900
C924        C  0.50226395  0.68346979  0.82909045    -0.03800
C925        C  0.53096167  0.65085060  0.82772377    -0.00100
C926        C  0.53682489  0.62876478  0.85013432    -0.02600
C927        C  0.45782418  0.68076933  0.89949803     0.36600
C928        C  0.55287774  0.63940241  0.80295130     0.40200
C929        C  0.44948670  0.72705701  0.85458705     0.39400
C930        C  0.56654232  0.59534922  0.84861809     0.36300
C931        C  0.45163799  0.57303357  0.87636335     0.37000
C932        C  0.58296237  0.60898077  0.96282849     0.40200
N933        N  0.42616175  0.75387009  0.85589674    -0.37800
N934        N  0.43720788  0.68842223  0.91884306    -0.39400
N935        N  0.57024542  0.63016029  0.78315502    -0.37200
N936        N  0.58994567  0.56855446  0.84749707    -0.39500
N937        N  0.60734596  0.68131799  0.91689454    -0.39300
N938        N  0.60847081  0.61663034  0.98063613    -0.37000
N939        N  0.44397015  0.49356315  0.91670856    -0.38000
N940        N  0.42369825  0.56651542  0.85928629    -0.39700
C941        C  0.55553359  0.61738463  0.58854732    -0.04600
C942        C  0.50846065  0.62489420  0.60128098     0.09500
C943        C  0.46241489  0.60863595  0.59199801    -0.02000
C944        C  0.46336054  0.58417398  0.57052625    -0.00200
C945        C  0.51107283  0.57496728  0.55815039    -0.03900
C946        C  0.55716665  0.59252491  0.56731007     0.03200
C947        C  0.50753238  0.64934186  0.62495906     0.10000
C948        C  0.41379004  0.61684682  0.60490656     0.35900
C949        C  0.60688325  0.58554474  0.55514509     0.39300
C950        C  0.49271161  0.68634163  0.62272794    -0.04200
C951        C  0.49117683  0.70899272  0.64514670     0.02900
C952        C  0.50448502  0.69488099  0.66986250    -0.03800
C953        C  0.51963107  0.65805933  0.67209824    -0.00100
C954        C  0.52125700  0.63534902  0.64974586    -0.02600
C955        C  0.47946975  0.70108107  0.59731210     0.36600
C956        C  0.53232341  0.64348639  0.69762387     0.40200
C957        C  0.47697461  0.74710529  0.64289312     0.39400
C958        C  0.53677670  0.59748284  0.65223325     0.36300
C959        C  0.60254185  0.63555486  0.59740945     0.37000
C960        C  0.41458057  0.56848382  0.56174919     0.40200
N961        N  0.46577628  0.77760146  0.64117009    -0.37800
N962        N  0.46892047  0.71275159  0.57698612    -0.39400
N963        N  0.54241443  0.63198012  0.71805955    -0.37200
N964        N  0.54932851  0.56728935  0.65417960    -0.39500
N965        N  0.37502919  0.62344012  0.61517439    -0.39300
N966        N  0.37546289  0.55623215  0.55481793    -0.37000
N967        N  0.64677735  0.58007283  0.54565679    -0.38000
N968        N  0.63987710  0.65020030  0.60449691    -0.39700
C969        C  0.48083473  0.36235903  0.92655653    -0.04600
C970        C  0.51121848  0.36802701  0.90396503     0.09500
C971        C  0.54628497  0.39781331  0.90276738    -0.02000
C972        C  0.54985749  0.42263734  0.92381021    -0.00200
C973        C  0.51804327  0.41782922  0.94613273    -0.03900
C974        C  0.48422092  0.38717090  0.94763063     0.03200
C975        C  0.50432850  0.34389363  0.88067546     0.10000
C976        C  0.57754999  0.40342198  0.87945153     0.35900
C977        C  0.45328892  0.38087000  0.97097177     0.39300
C978        C  0.47009367  0.35428350  0.86066678    -0.04200
C979        C  0.46707956  0.33368389  0.83741343     0.02900
C980        C  0.49647860  0.30145256  0.83457396    -0.03800
C981        C  0.52831232  0.28993872  0.85543217    -0.00100
C982        C  0.53328032  0.31163834  0.87810996    -0.02600
C983        C  0.43844522  0.38656288  0.86397154     0.36600
C984        C  0.55508882  0.25533836  0.85380268     0.40200
C985        C  0.43543765  0.34681160  0.81610276     0.39400
C986        C  0.56888256  0.30123939  0.89862301     0.36300
C987        C  0.44533421  0.33137434  0.92779286     0.37000
C988        C  0.58431869  0.45413978  0.92179628     0.40200
N989        N  0.40984493  0.35779595  0.79936865    -0.37800
N990        N  0.41302324  0.41217430  0.86673878    -0.39400
N991        N  0.57638056  0.22767726  0.85249610    -0.37200
N992        N  0.59753511  0.29310429  0.91492829    -0.39500
N993        N  0.60227143  0.40781895  0.86077855    -0.39300
N994        N  0.61179735  0.47926397  0.92015535    -0.37000
N995        N  0.42868206  0.37582829  0.98960634    -0.38000
N996        N  0.41705057  0.30662821  0.92869689    -0.39700
C997        C  0.46188170  0.38591794  0.59258495    -0.04600
C998        C  0.50564738  0.36437511  0.59747782     0.09500
C999        C  0.54971750  0.36792578  0.58142837    -0.02000
C1000       C  0.55053862  0.39360623  0.56081833    -0.00200
C1001       C  0.50834909  0.41773147  0.55720049    -0.03900
C1002       C  0.46353492  0.41318664  0.57310797     0.03200
C1003       C  0.50657846  0.34054487  0.62117604     0.10000
C1004       C  0.59465760  0.34558578  0.58654151     0.35900
C1005       C  0.41949749  0.43722961  0.57045004     0.39300
C1006       C  0.49623901  0.30261719  0.61935406    -0.04200
C1007       C  0.49335055  0.28114670  0.64229305     0.02900
C1008       C  0.50123719  0.29747147  0.66695325    -0.03800
C1009       C  0.51119546  0.33543128  0.66868599    -0.00100
C1010       C  0.51479150  0.35678252  0.64585806    -0.02600
C1011       C  0.48851161  0.28591211  0.59392021     0.36600
C1012       C  0.51476583  0.35321658  0.69390845     0.40200
C1013       C  0.48121539  0.24242667  0.64077537     0.39400
C1014       C  0.52664292  0.39566770  0.64770012     0.36300
C1015       C  0.41525724  0.38025447  0.60804471     0.37000
C1016       C  0.59437634  0.39412537  0.54301376     0.40200
N1017       N  0.47111548  0.21152668  0.63962182    -0.37800
N1018       N  0.48272327  0.27271303  0.57353042    -0.39400
N1019       N  0.51678583  0.36916065  0.71344310    -0.37200
N1020       N  0.53620462  0.42663494  0.64908910    -0.39500
N1021       N  0.63051159  0.32782279  0.59071663    -0.39300
N1022       N  0.62921154  0.39423146  0.52873186    -0.37000
N1023       N  0.38429301  0.45634904  0.56848046    -0.38000
N1024       N  0.37807638  0.37546794  0.62029315    -0.39700
loop_ 
_geom_bond_atom_site_label_1 
_geom_bond_atom_site_label_2 
_geom_bond_distance 
_geom_bond_site_symmetry_2 
_ccdc_geom_bond_type 
O1            V9   1.904       .  S
O1           C11   1.265       .  A
O2          V521   1.900       .  S
O2           C12   1.265       .  A
O3            V9   1.902       .  S
O3           C13   1.265       .  A
O4          V521   1.905       .  S
O4           C14   1.266       .  A
O5           V10   1.902       .  S
O5           C14   1.266       .  A
O6          V522   1.893       .  S
O6           C13   1.263       .  A
O7           V10   1.893       .  S
O7           C12   1.263       .  A
O8          V522   1.892       .  S
O8           C11   1.263       .  A
V9          O514   1.900       .  S
V9          O516   1.905       .  S
V9          V522   2.083       .  T
V10         O518   1.893   1_554  S
V10         O520   1.892   1_554  S
V10         V521   2.083       .  T
C11         C405   1.484       .  S
C12         C489   1.497       .  S
C13         C461   1.482       .  S
C14         C433   1.516       .  S
O15          V23   1.899   1_565  S
O15          C25   1.264       .  A
O16         V535   1.895       .  S
O16          C26   1.264       .  A
O17          V23   1.906       .  S
O17          C27   1.266       .  A
O18         V535   1.903   1_565  S
O18          C28   1.266       .  A
O19         V536   1.889   1_565  S
O19          C28   1.262   1_655  A
O20          V24   1.894       .  S
O20          C27   1.264   1_655  A
O21         V536   1.899       .  S
O21          C26   1.264   1_655  A
O22          V24   1.897   1_565  S
O22          C25   1.264   1_655  A
V23         O528   1.895   1_554  S
V23         O530   1.903   1_544  S
V23          V24   2.084   1_455  T
V24         O531   1.889   1_544  S
V24         O533   1.899   1_554  S
C25         C321   1.482       .  S
C26         C356   1.486       .  S
C27         C384   1.491       .  S
C28         C293   1.504       .  S
C29          C31   1.551       .  S
C29          C33   1.544       .  S
C29          C32   1.536       .  S
C29         C209   1.549       .  S
C30          C34   1.541       .  S
C30          C36   1.551       .  S
C30          C35   1.542       .  S
C30         C237   1.548       .  S
C31          C39   1.387       .  A
C31          C34   1.394   1_655  A
C32          C43   1.377       .  A
C32          C35   1.390   1_655  A
C33          C47   1.382       .  A
C33          C36   1.396   1_655  A
C34          C37   1.377       .  A
C35          C41   1.384       .  A
C36          C44   1.382       .  A
C37          N38   1.364   1_455  A
C37          H50   1.082       .  S
N38          C39   1.365       .  A
N38         C265   1.460       .  S
C39          H40   1.083       .  S
C41          N42   1.359       .  A
C41          H51   1.082       .  S
N42          C43   1.356   1_455  A
N42         C349   1.442       .  S
C43          H49   1.082       .  S
C44          N45   1.354       .  A
C44          H46   1.082       .  S
N45          C47   1.354   1_455  A
N45         C377   1.441       .  S
C47          H48   1.080       .  S
C52          C54   1.557       .  S
C52          C56   1.547       .  S
C52          C55   1.530       .  S
C52         C181   1.549       .  S
C53          C57   1.556       .  S
C53          C59   1.530       .  S
C53          C58   1.540       .  S
C53         C160   1.547       .  S
C54          C62   1.385       .  A
C54          C57   1.409   1_455  A
C55          C66   1.378       .  A
C55          C58   1.385   1_455  A
C56          C70   1.384       .  A
C56          C59   1.387   1_455  A
C57          C60   1.385       .  A
C58          C64   1.381       .  A
C59          C67   1.376       .  A
C60          N61   1.357       .  A
C60          H73   1.080       .  S
N61          C62   1.358   1_655  A
N61         C272   1.445       .  S
C62          H63   1.083       .  S
C64          N65   1.355       .  A
C64          H74   1.082       .  S
N65          C66   1.355   1_655  A
N65         C300   1.437   1_655  S
C66          H72   1.082       .  S
C67          N68   1.356       .  A
C67          H69   1.081       .  S
N68          C70   1.360   1_655  A
N68         C328   1.447       .  S
C70          H71   1.083       .  S
C75          C77   1.551       .  S
C75          C79   1.548       .  S
C75          C78   1.535       .  S
C75         C188   1.544       .  S
C76          C80   1.545       .  S
C76          C82   1.550       .  S
C76          C81   1.542       .  S
C76         C153   1.545       .  S
C77          C85   1.388       .  A
C77          C80   1.394       .  A
C78          C89   1.381       .  A
C78          C81   1.387       .  A
C79          C93   1.383       .  A
C79          C82   1.396       .  A
C80          C83   1.383       .  A
C81          C87   1.382       .  A
C82          C90   1.384       .  A
C83          N84   1.365       .  A
C83          H96   1.083       .  S
N84          C85   1.365       .  A
N84         C125   1.463       .  S
C85          H86   1.081       .  S
C87          N88   1.356       .  A
C87          H97   1.080       .  S
N88          C89   1.357       .  A
N88         C412   1.444       .  S
C89          H95   1.082       .  S
C90          N91   1.356       .  A
C90          H92   1.082       .  S
N91          C93   1.355       .  A
N91         C440   1.442       .  S
C93          H94   1.083       .  S
C98         C100   1.559       .  S
C98         C102   1.530       .  S
C98         C101   1.545       .  S
C98         C244   1.556       .  S
C99         C103   1.560       .  S
C99         C105   1.525       .  S
C99         C104   1.545       .  S
C99         C216   1.554       .  S
C100        C108   1.388       .  A
C100        C103   1.414       .  A
C101        C112   1.383       .  A
C101        C104   1.393       .  A
C102        C116   1.377       .  A
C102        C105   1.380       .  A
C103        C106   1.385       .  A
C104        C110   1.382       .  A
C105        C113   1.374       .  A
C106        N107   1.359       .  A
C106        H119   1.081       .  S
N107        C108   1.358       .  A
N107        C132   1.450       .  S
C108        H109   1.083       .  S
C110        N111   1.355       .  A
C110        H120   1.082       .  S
N111        C112   1.354       .  A
N111        C496   1.437       .  S
C112        H118   1.081       .  S
C113        N114   1.358       .  A
C113        H115   1.083       .  S
N114        C116   1.358       .  A
N114        C468   1.444       .  S
C116        H117   1.083       .  S
C121        C122   1.414       .  A
C121        C126   1.418       .  A
C121        C139   1.452       .  S
C122        C127   1.516   1_565  S
C122        C123   1.412       .  A
C123        C124   1.418       .  A
C123        C128   1.450       .  S
C124        C125   1.419       .  A
C124        C140   1.447       .  S
C125        C126   1.419       .  A
C126        C129   1.447       .  S
C127        C130   1.415       .  A
C127        C134   1.418       .  A
C128        N145   1.157       .  T
C129        N147   1.157       .  T
C130        C131   1.413       .  A
C130        C135   1.451       .  S
C131        C132   1.410       .  A
C131        C137   1.447       .  S
C132        C133   1.411       .  A
C133        C134   1.420       .  A
C133        C136   1.448       .  S
C134        C138   1.449       .  S
C135        N142   1.157   1_545  T
C136        N143   1.157       .  T
C137        N141   1.157       .  T
C138        N144   1.157       .  T
C139        N148   1.157       .  T
C140        N146   1.156       .  T
C149        C150   1.410       .  A
C149        C154   1.410       .  A
C149        C167   1.452       .  S
C150        C155   1.494       .  S
C150        C151   1.408       .  A
C151        C152   1.408       .  A
C151        C156   1.451       .  S
C152        C153   1.419       .  A
C152        C168   1.451       .  S
C153        C154   1.419       .  A
C154        C157   1.449       .  S
C155        C158   1.405       .  A
C155        C162   1.410       .  A
C156        N173   1.157       .  T
C157        N175   1.157       .  T
C158        C159   1.406       .  A
C158        C163   1.453       .  S
C159        C160   1.429       .  A
C159        C165   1.453       .  S
C160        C161   1.418       .  A
C161        C162   1.412       .  A
C161        C164   1.447       .  S
C162        C166   1.451       .  S
C163        N170   1.157       .  T
C164        N171   1.157       .  T
C165        N169   1.158       .  T
C166        N172   1.157       .  T
C167        N176   1.157       .  T
C168        N174   1.158       .  T
C177        C178   1.406       .  A
C177        C182   1.406       .  A
C177        C195   1.451       .  S
C178        C183   1.497       .  S
C178        C179   1.409       .  A
C179        C180   1.414       .  A
C179        C184   1.452       .  S
C180        C181   1.425       .  A
C180        C196   1.448       .  S
C181        C182   1.424       .  A
C182        C185   1.450       .  S
C183        C186   1.411       .  A
C183        C190   1.408       .  A
C184        N201   1.157       .  T
C185        N203   1.158       .  T
C186        C187   1.411       .  A
C186        C191   1.451       .  S
C187        C188   1.419       .  A
C187        C193   1.450       .  S
C188        C189   1.423       .  A
C189        C190   1.409       .  A
C189        C192   1.451       .  S
C190        C194   1.451       .  S
C191        N198   1.157       .  T
C192        N199   1.158       .  T
C193        N197   1.157       .  T
C194        N200   1.157       .  T
C195        N204   1.157       .  T
C196        N202   1.156       .  T
C205        C206   1.415       .  A
C205        C210   1.414       .  A
C205        C223   1.451       .  S
C206        C211   1.504       .  S
C206        C207   1.408       .  A
C207        C208   1.409       .  A
C207        C212   1.451       .  S
C208        C209   1.424       .  A
C208        C224   1.450       .  S
C209        C210   1.420       .  A
C210        C213   1.450       .  S
C211        C214   1.406       .  A
C211        C218   1.414       .  A
C212        N229   1.157       .  T
C213        N231   1.157       .  T
C214        C215   1.407       .  A
C214        C219   1.452       .  S
C215        C216   1.424       .  A
C215        C221   1.447       .  S
C216        C217   1.420       .  A
C217        C218   1.418       .  A
C217        C220   1.445       .  S
C218        C222   1.451       .  S
C219        N226   1.157       .  T
C220        N227   1.156       .  T
C221        N225   1.156       .  T
C222        N228   1.157       .  T
C223        N232   1.157       .  T
C224        N230   1.157       .  T
C233        C234   1.412       .  A
C233        C238   1.414       .  A
C233        C251   1.450       .  S
C234        C239   1.500       .  S
C234        C235   1.410       .  A
C235        C236   1.409       .  A
C235        C240   1.450       .  S
C236        C237   1.416       .  A
C236        C252   1.450       .  S
C237        C238   1.416       .  A
C238        C241   1.448       .  S
C239        C242   1.410       .  A
C239        C246   1.404       .  A
C240        N257   1.157       .  T
C241        N259   1.157       .  T
C242        C243   1.418       .  A
C242        C247   1.451       .  S
C243        C244   1.422       .  A
C243        C249   1.447       .  S
C244        C245   1.432       .  A
C245        C246   1.409       .  A
C245        C248   1.451       .  S
C246        C250   1.453       .  S
C247        N254   1.157       .  T
C248        N255   1.157       .  T
C249        N253   1.158       .  T
C250        N256   1.157       .  T
C251        N260   1.157       .  T
C252        N258   1.157       .  T
C261        C262   1.412       .  A
C261        C266   1.417       .  A
C261        C279   1.452       .  S
C262        C267   1.509       .  S
C262        C263   1.411   1_655  A
C263        C264   1.414       .  A
C263        C268   1.451       .  S
C264        C265   1.420   1_455  A
C264        C280   1.449       .  S
C265        C266   1.421       .  A
C266        C269   1.447       .  S
C267        C270   1.415       .  A
C267        C274   1.415       .  A
C268        N285   1.157       .  T
C269        N287   1.157       .  T
C270        C271   1.413       .  A
C270        C275   1.450   1_655  S
C271        C272   1.408       .  A
C271        C277   1.447   1_655  S
C272        C273   1.411       .  A
C273        C274   1.416       .  A
C273        C276   1.448       .  S
C274        C278   1.450       .  S
C275        N282   1.157       .  T
C276        N283   1.157       .  T
C277        N281   1.157       .  T
C278        N284   1.157       .  T
C279        N288   1.157       .  T
C280        N286   1.157       .  T
C289        C290   1.405   1_655  A
C289        C294   1.410       .  A
C289        C307   1.453       .  S
C290        C295   1.493       .  S
C290        C291   1.407       .  A
C291        C292   1.412       .  A
C291        C296   1.452       .  S
C292        C293   1.424       .  A
C292        C308   1.451       .  S
C293        C294   1.427   1_455  A
C294        C297   1.452       .  S
C295        C298   1.411       .  A
C295        C302   1.411   1_455  A
C296        N313   1.157       .  T
C297        N315   1.158       .  T
C298        C299   1.408       .  A
C298        C303   1.451       .  S
C299        C300   1.410       .  A
C299        C305   1.449       .  S
C300        C301   1.408   1_455  A
C301        C302   1.410       .  A
C301        C304   1.448       .  S
C302        C306   1.450       .  S
C303        N310   1.157       .  T
C304        N311   1.157       .  T
C305        N309   1.157       .  T
C306        N312   1.157       .  T
C307        N316   1.157       .  T
C308        N314   1.158       .  T
C317        C318   1.412   1_455  A
C317        C322   1.410       .  A
C317        C335   1.451       .  S
C318        C323   1.495       .  S
C318        C319   1.411       .  A
C319        C320   1.410       .  A
C319        C324   1.450       .  S
C320        C321   1.414   1_655  A
C320        C336   1.452       .  S
C321        C322   1.413       .  A
C322        C325   1.451       .  S
C323        C326   1.410       .  A
C323        C330   1.410   1_655  A
C324        N341   1.157       .  T
C325        N343   1.157       .  T
C326        C327   1.410       .  A
C326        C331   1.452       .  S
C327        C328   1.417       .  A
C327        C333   1.449       .  S
C328        C329   1.414   1_655  A
C329        C330   1.411       .  A
C329        C332   1.449       .  S
C330        C334   1.450       .  S
C331        N338   1.157       .  T
C332        N339   1.157       .  T
C333        N337   1.157       .  T
C334        N340   1.157       .  T
C335        N344   1.157       .  T
C336        N342   1.157       .  T
C345        C346   1.412       .  A
C345        C350   1.410       .  A
C345        C363   1.451       .  S
C346        C351   1.497       .  S
C346        C347   1.412   1_455  A
C347        C348   1.411       .  A
C347        C352   1.451       .  S
C348        C349   1.411   1_655  A
C348        C364   1.447       .  S
C349        C350   1.410       .  A
C350        C353   1.447       .  S
C351        C354   1.412   1_455  A
C351        C358   1.411       .  A
C352        N369   1.157       .  T
C353        N371   1.157       .  T
C354        C355   1.410       .  A
C354        C359   1.451       .  S
C355        C356   1.414   1_655  A
C355        C361   1.451       .  S
C356        C357   1.417       .  A
C357        C358   1.410       .  A
C357        C360   1.453       .  S
C358        C362   1.451       .  S
C359        N366   1.157       .  T
C360        N367   1.158       .  T
C361        N365   1.157       .  T
C362        N368   1.157       .  T
C363        N372   1.157       .  T
C364        N370   1.157       .  T
C373        C374   1.411   1_655  A
C373        C378   1.412       .  A
C373        C391   1.450       .  S
C374        C379   1.495       .  S
C374        C375   1.411       .  A
C375        C376   1.408       .  A
C375        C380   1.451       .  S
C376        C377   1.412       .  A
C376        C392   1.449       .  S
C377        C378   1.411   1_455  A
C378        C381   1.449       .  S
C379        C382   1.410       .  A
C379        C386   1.409   1_455  A
C380        N397   1.157       .  T
C381        N399   1.157       .  T
C382        C383   1.413       .  A
C382        C387   1.451       .  S
C383        C384   1.417       .  A
C383        C389   1.450       .  S
C384        C385   1.418   1_455  A
C385        C386   1.409       .  A
C385        C388   1.452       .  S
C386        C390   1.452       .  S
C387        N394   1.157       .  T
C388        N395   1.157       .  T
C389        N393   1.157       .  T
C390        N396   1.157       .  T
C391        N400   1.157       .  T
C392        N398   1.157       .  T
C401        C402   1.410       .  A
C401        C406   1.407       .  A
C401        C419   1.451       .  S
C402        C407   1.498       .  S
C402        C403   1.414       .  A
C403        C404   1.414       .  A
C403        C408   1.450       .  S
C404        C405   1.413       .  A
C404        C420   1.451       .  S
C405        C406   1.415       .  A
C406        C409   1.452       .  S
C407        C410   1.412       .  A
C407        C414   1.412       .  A
C408        N425   1.157       .  T
C409        N427   1.157       .  T
C410        C411   1.412       .  A
C410        C415   1.450       .  S
C411        C412   1.412       .  A
C411        C417   1.449       .  S
C412        C413   1.412       .  A
C413        C414   1.410       .  A
C413        C416   1.449       .  S
C414        C418   1.451       .  S
C415        N422   1.157       .  T
C416        N423   1.157       .  T
C417        N421   1.157       .  T
C418        N424   1.157       .  T
C419        N428   1.157       .  T
C420        N426   1.157       .  T
C429        C430   1.408       .  A
C429        C434   1.415       .  A
C429        C447   1.452       .  S
C430        C435   1.504       .  S
C430        C431   1.408       .  A
C431        C432   1.415       .  A
C431        C436   1.452       .  S
C432        C433   1.428       .  A
C432        C448   1.451       .  S
C433        C434   1.427       .  A
C434        C437   1.451       .  S
C435        C438   1.413       .  A
C435        C442   1.414       .  A
C436        N453   1.157       .  T
C437        N455   1.158       .  T
C438        C439   1.413       .  A
C438        C443   1.449       .  S
C439        C440   1.409       .  A
C439        C445   1.448       .  S
C440        C441   1.409       .  A
C441        C442   1.412       .  A
C441        C444   1.449       .  S
C442        C446   1.450       .  S
C443        N450   1.157       .  T
C444        N451   1.157       .  T
C445        N449   1.157       .  T
C446        N452   1.157       .  T
C447        N456   1.157       .  T
C448        N454   1.158       .  T
C457        C458   1.409       .  A
C457        C462   1.409       .  A
C457        C475   1.451       .  S
C458        C463   1.491       .  S
C458        C459   1.410       .  A
C459        C460   1.409       .  A
C459        C464   1.451       .  S
C460        C461   1.414       .  A
C460        C476   1.451       .  S
C461        C462   1.415       .  A
C462        C465   1.451       .  S
C463        C466   1.409       .  A
C463        C470   1.408       .  A
C464        N481   1.157       .  T
C465        N483   1.157       .  T
C466        C467   1.408       .  A
C466        C471   1.452       .  S
C467        C468   1.415       .  A
C467        C473   1.448       .  S
C468        C469   1.415       .  A
C469        C470   1.409       .  A
C469        C472   1.450       .  S
C470        C474   1.450       .  S
C471        N478   1.157       .  T
C472        N479   1.157       .  T
C473        N477   1.157       .  T
C474        N480   1.157       .  T
C475        N484   1.157       .  T
C476        N482   1.157       .  T
C485        C486   1.408       .  A
C485        C490   1.409       .  A
C485        C503   1.452       .  S
C486        C491   1.492       .  S
C486        C487   1.407       .  A
C487        C488   1.411       .  A
C487        C492   1.451       .  S
C488        C489   1.422       .  A
C488        C504   1.451       .  S
C489        C490   1.422       .  A
C490        C493   1.452       .  S
C491        C494   1.411       .  A
C491        C498   1.409       .  A
C492        N509   1.157       .  T
C493        N511   1.158       .  T
C494        C495   1.412       .  A
C494        C499   1.449       .  S
C495        C496   1.408       .  A
C495        C501   1.447       .  S
C496        C497   1.410       .  A
C497        C498   1.406       .  A
C497        C500   1.446       .  S
C498        C502   1.453       .  S
C499        N506   1.157       .  T
C500        N507   1.156       .  T
C501        N505   1.157       .  T
C502        N508   1.157       .  T
C503        N512   1.157       .  T
C504        N510   1.157       .  T
O513        V521   1.904   1_556  S
O513        C523   1.265       .  A
O514        C524   1.265       .  A
O515        V521   1.902   1_556  S
O515        C525   1.265       .  A
O516        C526   1.266       .  A
O517        V522   1.902       .  S
O517        C526   1.266       .  A
O518        C525   1.263       .  A
O519        V522   1.893       .  S
O519        C524   1.263       .  A
O520        C523   1.263       .  A
C523        C917   1.484       .  S
C524       C1001   1.497       .  S
C525        C973   1.482       .  S
C526        C945   1.516       .  S
O527        V535   1.899   1_565  S
O527        C537   1.264       .  A
O528        C538   1.264       .  A
O529        V535   1.906       .  S
O529        C539   1.266       .  A
O530        C540   1.266       .  A
O531        C540   1.262   1_655  A
O532        V536   1.894       .  S
O532        C539   1.264   1_655  A
O533        C538   1.264   1_655  A
O534        V536   1.897   1_565  S
O534        C537   1.264   1_655  A
V535        V536   2.084   1_455  T
C537        C833   1.482       .  S
C538        C868   1.486       .  S
C539        C896   1.491       .  S
C540        C805   1.504       .  S
C541        C543   1.551       .  S
C541        C545   1.544       .  S
C541        C544   1.536       .  S
C541        C721   1.549       .  S
C542        C546   1.541       .  S
C542        C548   1.551       .  S
C542        C547   1.542       .  S
C542        C749   1.548       .  S
C543        C551   1.387       .  A
C543        C546   1.394   1_655  A
C544        C555   1.377       .  A
C544        C547   1.390   1_655  A
C545        C559   1.382       .  A
C545        C548   1.396   1_655  A
C546        C549   1.377       .  A
C547        C553   1.384       .  A
C548        C556   1.382       .  A
C549        N550   1.364   1_455  A
C549        H562   1.082       .  S
N550        C551   1.365       .  A
N550        C777   1.460       .  S
C551        H552   1.083       .  S
C553        N554   1.359       .  A
C553        H563   1.082       .  S
N554        C555   1.356   1_455  A
N554        C861   1.442       .  S
C555        H561   1.082       .  S
C556        N557   1.354       .  A
C556        H558   1.082       .  S
N557        C559   1.354   1_455  A
N557        C889   1.441       .  S
C559        H560   1.080       .  S
C564        C566   1.557       .  S
C564        C568   1.547       .  S
C564        C567   1.530       .  S
C564        C693   1.549       .  S
C565        C569   1.556       .  S
C565        C571   1.530       .  S
C565        C570   1.540       .  S
C565        C672   1.547       .  S
C566        C574   1.385       .  A
C566        C569   1.409   1_455  A
C567        C578   1.378       .  A
C567        C570   1.385   1_455  A
C568        C582   1.384       .  A
C568        C571   1.387   1_455  A
C569        C572   1.385       .  A
C570        C576   1.381       .  A
C571        C579   1.376       .  A
C572        N573   1.357       .  A
C572        H585   1.080       .  S
N573        C574   1.358   1_655  A
N573        C784   1.445       .  S
C574        H575   1.083       .  S
C576        N577   1.355       .  A
C576        H586   1.082       .  S
N577        C578   1.355   1_655  A
N577        C812   1.437   1_655  S
C578        H584   1.082       .  S
C579        N580   1.356       .  A
C579        H581   1.081       .  S
N580        C582   1.360   1_655  A
N580        C840   1.447       .  S
C582        H583   1.083       .  S
C587        C589   1.551       .  S
C587        C591   1.548       .  S
C587        C590   1.535       .  S
C587        C700   1.544       .  S
C588        C592   1.545       .  S
C588        C594   1.550       .  S
C588        C593   1.542       .  S
C588        C665   1.545       .  S
C589        C597   1.388       .  A
C589        C592   1.394       .  A
C590        C601   1.381       .  A
C590        C593   1.387       .  A
C591        C605   1.383       .  A
C591        C594   1.396       .  A
C592        C595   1.383       .  A
C593        C599   1.383       .  A
C594        C602   1.384       .  A
C595        N596   1.365       .  A
C595        H608   1.083       .  S
N596        C597   1.365       .  A
N596        C637   1.463       .  S
C597        H598   1.081       .  S
C599        N600   1.356       .  A
C599        H609   1.080       .  S
N600        C601   1.357       .  A
N600        C924   1.444       .  S
C601        H607   1.082       .  S
C602        N603   1.356       .  A
C602        H604   1.082       .  S
N603        C605   1.355       .  A
N603        C952   1.442       .  S
C605        H606   1.083       .  S
C610        C612   1.559       .  S
C610        C614   1.530       .  S
C610        C613   1.545       .  S
C610        C756   1.556       .  S
C611        C615   1.560       .  S
C611        C617   1.525       .  S
C611        C616   1.545       .  S
C611        C728   1.554       .  S
C612        C620   1.388       .  A
C612        C615   1.414       .  A
C613        C624   1.383       .  A
C613        C616   1.393       .  A
C614        C628   1.377       .  A
C614        C617   1.380       .  A
C615        C618   1.385       .  A
C616        C622   1.382       .  A
C617        C625   1.374       .  A
C618        N619   1.359       .  A
C618        H631   1.081       .  S
N619        C620   1.358       .  A
N619        C644   1.450       .  S
C620        H621   1.083       .  S
C622        N623   1.355       .  A
C622        H632   1.082       .  S
N623        C624   1.354       .  A
N623       C1008   1.437       .  S
C624        H630   1.081       .  S
C625        N626   1.358       .  A
C625        H627   1.083       .  S
N626        C628   1.358       .  A
N626        C980   1.444       .  S
C628        H629   1.083       .  S
C633        C634   1.414       .  A
C633        C638   1.418       .  A
C633        C651   1.452       .  S
C634        C639   1.516   1_565  S
C634        C635   1.412       .  A
C635        C636   1.418       .  A
C635        C640   1.450       .  S
C636        C637   1.419       .  A
C636        C652   1.447       .  S
C637        C638   1.419       .  A
C638        C641   1.447       .  S
C639        C642   1.415       .  A
C639        C646   1.418       .  A
C640        N657   1.157       .  T
C641        N659   1.157       .  T
C642        C643   1.413       .  A
C642        C647   1.451       .  S
C643        C644   1.410       .  A
C643        C649   1.447       .  S
C644        C645   1.411       .  A
C645        C646   1.420       .  A
C645        C648   1.448       .  S
C646        C650   1.449       .  S
C647        N654   1.157   1_545  T
C648        N655   1.157       .  T
C649        N653   1.157       .  T
C650        N656   1.157       .  T
C651        N660   1.157       .  T
C652        N658   1.156       .  T
C661        C662   1.410       .  A
C661        C666   1.410       .  A
C661        C679   1.452       .  S
C662        C667   1.494       .  S
C662        C663   1.408       .  A
C663        C664   1.408       .  A
C663        C668   1.451       .  S
C664        C665   1.419       .  A
C664        C680   1.451       .  S
C665        C666   1.419       .  A
C666        C669   1.449       .  S
C667        C670   1.405       .  A
C667        C674   1.410       .  A
C668        N685   1.157       .  T
C669        N687   1.157       .  T
C670        C671   1.406       .  A
C670        C675   1.453       .  S
C671        C672   1.429       .  A
C671        C677   1.453       .  S
C672        C673   1.418       .  A
C673        C674   1.412       .  A
C673        C676   1.447       .  S
C674        C678   1.451       .  S
C675        N682   1.157       .  T
C676        N683   1.157       .  T
C677        N681   1.158       .  T
C678        N684   1.157       .  T
C679        N688   1.157       .  T
C680        N686   1.158       .  T
C689        C690   1.406       .  A
C689        C694   1.406       .  A
C689        C707   1.451       .  S
C690        C695   1.497       .  S
C690        C691   1.409       .  A
C691        C692   1.414       .  A
C691        C696   1.452       .  S
C692        C693   1.425       .  A
C692        C708   1.448       .  S
C693        C694   1.424       .  A
C694        C697   1.450       .  S
C695        C698   1.411       .  A
C695        C702   1.408       .  A
C696        N713   1.157       .  T
C697        N715   1.158       .  T
C698        C699   1.411       .  A
C698        C703   1.451       .  S
C699        C700   1.419       .  A
C699        C705   1.450       .  S
C700        C701   1.423       .  A
C701        C702   1.409       .  A
C701        C704   1.451       .  S
C702        C706   1.451       .  S
C703        N710   1.157       .  T
C704        N711   1.158       .  T
C705        N709   1.157       .  T
C706        N712   1.157       .  T
C707        N716   1.157       .  T
C708        N714   1.156       .  T
C717        C718   1.415       .  A
C717        C722   1.414       .  A
C717        C735   1.451       .  S
C718        C723   1.504       .  S
C718        C719   1.408       .  A
C719        C720   1.409       .  A
C719        C724   1.451       .  S
C720        C721   1.424       .  A
C720        C736   1.450       .  S
C721        C722   1.420       .  A
C722        C725   1.450       .  S
C723        C726   1.406       .  A
C723        C730   1.414       .  A
C724        N741   1.157       .  T
C725        N743   1.157       .  T
C726        C727   1.407       .  A
C726        C731   1.452       .  S
C727        C728   1.424       .  A
C727        C733   1.447       .  S
C728        C729   1.420       .  A
C729        C730   1.418       .  A
C729        C732   1.445       .  S
C730        C734   1.451       .  S
C731        N738   1.157       .  T
C732        N739   1.156       .  T
C733        N737   1.156       .  T
C734        N740   1.157       .  T
C735        N744   1.157       .  T
C736        N742   1.157       .  T
C745        C746   1.412       .  A
C745        C750   1.414       .  A
C745        C763   1.450       .  S
C746        C751   1.500       .  S
C746        C747   1.410       .  A
C747        C748   1.409       .  A
C747        C752   1.450       .  S
C748        C749   1.416       .  A
C748        C764   1.450       .  S
C749        C750   1.416       .  A
C750        C753   1.448       .  S
C751        C754   1.410       .  A
C751        C758   1.404       .  A
C752        N769   1.157       .  T
C753        N771   1.157       .  T
C754        C755   1.418       .  A
C754        C759   1.451       .  S
C755        C756   1.422       .  A
C755        C761   1.447       .  S
C756        C757   1.432       .  A
C757        C758   1.409       .  A
C757        C760   1.451       .  S
C758        C762   1.453       .  S
C759        N766   1.157       .  T
C760        N767   1.157       .  T
C761        N765   1.158       .  T
C762        N768   1.157       .  T
C763        N772   1.157       .  T
C764        N770   1.157       .  T
C773        C774   1.412       .  A
C773        C778   1.417       .  A
C773        C791   1.452       .  S
C774        C779   1.509       .  S
C774        C775   1.411   1_655  A
C775        C776   1.414       .  A
C775        C780   1.451       .  S
C776        C777   1.420   1_455  A
C776        C792   1.449       .  S
C777        C778   1.421       .  A
C778        C781   1.447       .  S
C779        C782   1.415       .  A
C779        C786   1.415       .  A
C780        N797   1.157       .  T
C781        N799   1.157       .  T
C782        C783   1.413       .  A
C782        C787   1.450   1_655  S
C783        C784   1.408       .  A
C783        C789   1.447   1_655  S
C784        C785   1.411       .  A
C785        C786   1.416       .  A
C785        C788   1.448       .  S
C786        C790   1.450       .  S
C787        N794   1.157       .  T
C788        N795   1.157       .  T
C789        N793   1.157       .  T
C790        N796   1.157       .  T
C791        N800   1.157       .  T
C792        N798   1.157       .  T
C801        C802   1.405   1_655  A
C801        C806   1.410       .  A
C801        C819   1.453       .  S
C802        C807   1.493       .  S
C802        C803   1.407       .  A
C803        C804   1.412       .  A
C803        C808   1.452       .  S
C804        C805   1.424       .  A
C804        C820   1.451       .  S
C805        C806   1.427   1_455  A
C806        C809   1.452       .  S
C807        C810   1.411       .  A
C807        C814   1.411   1_455  A
C808        N825   1.157       .  T
C809        N827   1.158       .  T
C810        C811   1.408       .  A
C810        C815   1.451       .  S
C811        C812   1.410       .  A
C811        C817   1.449       .  S
C812        C813   1.408   1_455  A
C813        C814   1.410       .  A
C813        C816   1.448       .  S
C814        C818   1.450       .  S
C815        N822   1.157       .  T
C816        N823   1.157       .  T
C817        N821   1.157       .  T
C818        N824   1.157       .  T
C819        N828   1.157       .  T
C820        N826   1.158       .  T
C829        C830   1.412   1_455  A
C829        C834   1.410       .  A
C829        C847   1.451       .  S
C830        C835   1.495       .  S
C830        C831   1.411       .  A
C831        C832   1.410       .  A
C831        C836   1.450       .  S
C832        C833   1.414   1_655  A
C832        C848   1.452       .  S
C833        C834   1.413       .  A
C834        C837   1.451       .  S
C835        C838   1.410       .  A
C835        C842   1.410   1_655  A
C836        N853   1.157       .  T
C837        N855   1.157       .  T
C838        C839   1.410       .  A
C838        C843   1.452       .  S
C839        C840   1.417       .  A
C839        C845   1.449       .  S
C840        C841   1.414   1_655  A
C841        C842   1.411       .  A
C841        C844   1.449       .  S
C842        C846   1.450       .  S
C843        N850   1.157       .  T
C844        N851   1.157       .  T
C845        N849   1.157       .  T
C846        N852   1.157       .  T
C847        N856   1.157       .  T
C848        N854   1.157       .  T
C857        C858   1.411       .  A
C857        C862   1.410       .  A
C857        C875   1.451       .  S
C858        C863   1.497       .  S
C858        C859   1.412   1_455  A
C859        C860   1.411       .  A
C859        C864   1.451       .  S
C860        C861   1.411   1_655  A
C860        C876   1.447       .  S
C861        C862   1.410       .  A
C862        C865   1.447       .  S
C863        C866   1.412   1_455  A
C863        C870   1.411       .  A
C864        N881   1.157       .  T
C865        N883   1.157       .  T
C866        C867   1.410       .  A
C866        C871   1.451       .  S
C867        C868   1.414   1_655  A
C867        C873   1.451       .  S
C868        C869   1.417       .  A
C869        C870   1.410       .  A
C869        C872   1.453       .  S
C870        C874   1.451       .  S
C871        N878   1.157       .  T
C872        N879   1.158       .  T
C873        N877   1.157       .  T
C874        N880   1.157       .  T
C875        N884   1.157       .  T
C876        N882   1.157       .  T
C885        C886   1.411   1_655  A
C885        C890   1.412       .  A
C885        C903   1.450       .  S
C886        C891   1.495       .  S
C886        C887   1.411       .  A
C887        C888   1.408       .  A
C887        C892   1.451       .  S
C888        C889   1.412       .  A
C888        C904   1.449       .  S
C889        C890   1.411   1_455  A
C890        C893   1.449       .  S
C891        C894   1.410       .  A
C891        C898   1.409   1_455  A
C892        N909   1.157       .  T
C893        N911   1.157       .  T
C894        C895   1.413       .  A
C894        C899   1.451       .  S
C895        C896   1.417       .  A
C895        C901   1.450       .  S
C896        C897   1.418   1_455  A
C897        C898   1.409       .  A
C897        C900   1.452       .  S
C898        C902   1.452       .  S
C899        N906   1.157       .  T
C900        N907   1.157       .  T
C901        N905   1.157       .  T
C902        N908   1.157       .  T
C903        N912   1.157       .  T
C904        N910   1.157       .  T
C913        C914   1.410       .  A
C913        C918   1.407       .  A
C913        C931   1.451       .  S
C914        C919   1.498       .  S
C914        C915   1.414       .  A
C915        C916   1.414       .  A
C915        C920   1.450       .  S
C916        C917   1.413       .  A
C916        C932   1.451       .  S
C917        C918   1.415       .  A
C918        C921   1.452       .  S
C919        C922   1.412       .  A
C919        C926   1.412       .  A
C920        N937   1.157       .  T
C921        N939   1.157       .  T
C922        C923   1.412       .  A
C922        C927   1.450       .  S
C923        C924   1.412       .  A
C923        C929   1.449       .  S
C924        C925   1.412       .  A
C925        C926   1.410       .  A
C925        C928   1.449       .  S
C926        C930   1.451       .  S
C927        N934   1.157       .  T
C928        N935   1.157       .  T
C929        N933   1.157       .  T
C930        N936   1.157       .  T
C931        N940   1.157       .  T
C932        N938   1.157       .  T
C941        C942   1.408       .  A
C941        C946   1.415       .  A
C941        C959   1.452       .  S
C942        C947   1.504       .  S
C942        C943   1.408       .  A
C943        C944   1.415       .  A
C943        C948   1.452       .  S
C944        C945   1.428       .  A
C944        C960   1.451       .  S
C945        C946   1.427       .  A
C946        C949   1.451       .  S
C947        C950   1.413       .  A
C947        C954   1.414       .  A
C948        N965   1.157       .  T
C949        N967   1.158       .  T
C950        C951   1.413       .  A
C950        C955   1.449       .  S
C951        C952   1.409       .  A
C951        C957   1.448       .  S
C952        C953   1.409       .  A
C953        C954   1.412       .  A
C953        C956   1.449       .  S
C954        C958   1.450       .  S
C955        N962   1.157       .  T
C956        N963   1.157       .  T
C957        N961   1.157       .  T
C958        N964   1.157       .  T
C959        N968   1.157       .  T
C960        N966   1.158       .  T
C969        C970   1.409       .  A
C969        C974   1.409       .  A
C969        C987   1.451       .  S
C970        C975   1.491       .  S
C970        C971   1.410       .  A
C971        C972   1.409       .  A
C971        C976   1.451       .  S
C972        C973   1.414       .  A
C972        C988   1.451       .  S
C973        C974   1.415       .  A
C974        C977   1.451       .  S
C975        C978   1.409       .  A
C975        C982   1.408       .  A
C976        N993   1.157       .  T
C977        N995   1.157       .  T
C978        C979   1.408       .  A
C978        C983   1.452       .  S
C979        C980   1.415       .  A
C979        C985   1.448       .  S
C980        C981   1.415       .  A
C981        C982   1.409       .  A
C981        C984   1.450       .  S
C982        C986   1.450       .  S
C983        N990   1.157       .  T
C984        N991   1.157       .  T
C985        N989   1.157       .  T
C986        N992   1.157       .  T
C987        N996   1.157       .  T
C988        N994   1.157       .  T
C997        C998   1.408       .  A
C997       C1002   1.409       .  A
C997       C1015   1.452       .  S
C998       C1003   1.492       .  S
C998        C999   1.407       .  A
C999       C1000   1.411       .  A
C999       C1004   1.451       .  S
C1000      C1001   1.422       .  A
C1000      C1016   1.451       .  S
C1001      C1002   1.422       .  A
C1002      C1005   1.452       .  S
C1003      C1006   1.411       .  A
C1003      C1010   1.409       .  A
C1004      N1021   1.157       .  T
C1005      N1023   1.158       .  T
C1006      C1007   1.412       .  A
C1006      C1011   1.449       .  S
C1007      C1008   1.408       .  A
C1007      C1013   1.447       .  S
C1008      C1009   1.410       .  A
C1009      C1010   1.406       .  A
C1009      C1012   1.446       .  S
C1010      C1014   1.453       .  S
C1011      N1018   1.157       .  T
C1012      N1019   1.156       .  T
C1013      N1017   1.157       .  T
C1014      N1020   1.157       .  T
C1015      N1024   1.157       .  T
C1016      N1022   1.157       .  T
