geometry optimzed in LAMMPS
_audit_creation_date              2020-11-30 
_audit_creation_method            'lammps2cif' 
_symmetry_space_group_name_H-M    'P1' 
_symmetry_Int_Tables_number       1 
_symmetry_cell_setting            triclinic 
loop_ 
_symmetry_equiv_pos_as_xyz 
  x,y,z 
_cell_length_a                    28.90468205 
_cell_length_b                    29.024886351118123 
_cell_length_c                    28.932022531163703 
_cell_angle_alpha                 89.90013516017964 
_cell_angle_beta                  89.76641166015294 
_cell_angle_gamma                 90.09583439684145 
loop_ 
_atom_site_label 
_atom_site_type_symbol 
_atom_site_fract_x 
_atom_site_fract_y 
_atom_site_fract_z 
_atom_site_charge 
N1          N  0.58818575  0.45144138  0.04160658    -0.06800
N2          N  0.62156673  0.44250489  0.07129112    -0.58900
N3          N  0.54439506  0.41854646  0.44027860    -0.06400
N4          N  0.54655292  0.38835194  0.40656347    -0.61000
N5          N  0.57737971  0.44934089  0.43621945    -0.06000
N6          N  0.60288697  0.44096987  0.39937088    -0.58800
N7          N  0.55533782  0.42032578  0.04497794    -0.05700
N8          N  0.56520665  0.38980224  0.07702411    -0.61400
C9          C  0.60650946  0.40398683  0.09323924     0.95400
C10         C  0.58274154  0.40317367  0.38098384     0.95200
N11         N  0.40652631  0.45219724  0.45429719    -0.06900
N12         N  0.37497654  0.44616748  0.42219030    -0.59400
N13         N  0.44931958  0.42204974  0.05567121    -0.05100
N14         N  0.44365923  0.39031460  0.08752736    -0.60700
N15         N  0.41735759  0.45393536  0.05908499    -0.07000
N16         N  0.38890980  0.44446083  0.09350027    -0.59700
N17         N  0.43873863  0.42059063  0.45126490    -0.04700
N18         N  0.43008590  0.39223195  0.41705332    -0.60800
Mn19       Mn  0.49691253  0.41900572  0.99814743     1.18400
C20         C  0.39028828  0.40864512  0.39933885     0.97500
C21         C  0.40622174  0.40492234  0.11109804     0.98200
N22         N  0.57811970  0.55478827  0.43248709    -0.07000
N23         N  0.60385276  0.55810462  0.39510281    -0.63300
N24         N  0.55642158  0.59236877  0.03824884    -0.05800
N25         N  0.56649006  0.62375369  0.06925140    -0.64000
N26         N  0.58813316  0.56001963  0.03725146    -0.06500
N27         N  0.62070659  0.56879892  0.06762282    -0.63600
N28         N  0.54653885  0.58722246  0.43327292    -0.05400
N29         N  0.55039748  0.61363011  0.39625171    -0.64300
Mn30       Mn  0.58488959  0.50403826  0.48713370     1.10700
C31         C  0.58609707  0.59462355  0.37250087     0.98700
C32         C  0.60649005  0.60855248  0.08741093     0.98800
N33         N  0.41787430  0.56186488  0.05540851    -0.06500
N34         N  0.38934816  0.57199297  0.08938149    -0.61900
N35         N  0.43958649  0.58872035  0.44553219    -0.05800
N36         N  0.42999701  0.61593983  0.41058954    -0.58600
N37         N  0.40701626  0.55768924  0.45111433    -0.07100
N38         N  0.37435618  0.56300268  0.42007529    -0.61400
N39         N  0.44910695  0.59441652  0.05009373    -0.06100
N40         N  0.44225682  0.62763996  0.08043331    -0.58600
Mn41       Mn  0.41055252  0.50642670  0.00556919     1.20200
Mn42       Mn  0.49807476  0.59256050  0.49168639     1.10100
Cl43       Cl  0.49767714  0.50561897  0.99608142    -0.86600
C44         C  0.40502856  0.61293920  0.10491750     0.95700
C45         C  0.38933778  0.59931538  0.39494939     0.95500
N46         N  0.41849519  0.94326906  0.06320072    -0.06800
N47         N  0.38319413  0.91771843  0.07701180    -0.58900
N48         N  0.45297357  0.04785283  0.09317958    -0.06400
N49         N  0.44183987  0.07476588  0.12832775    -0.61000
N50         N  0.41964048  0.04782292  0.06225301    -0.06000
N51         N  0.38535602  0.07467755  0.07609256    -0.58800
N52         N  0.45143201  0.94304692  0.09457956    -0.05700
N53         N  0.43875092  0.91718295  0.13026051    -0.61400
C54         C  0.39622640  0.90111357  0.11866960     0.95400
C55         C  0.39973321  0.09178736  0.11719097     0.95200
N56         N  0.59492697  0.04755965  0.05480717    -0.06900
N57         N  0.62950524  0.07577145  0.06454991    -0.59400
N58         N  0.56341298  0.94265300  0.09003414    -0.05100
N59         N  0.57592739  0.91562799  0.12455763    -0.60700
N60         N  0.59532233  0.94257366  0.05733445    -0.07000
N61         N  0.63011056  0.91544311  0.06949159    -0.59700
N62         N  0.56419518  0.04749633  0.08862114    -0.04700
N63         N  0.57750910  0.07564701  0.12196352    -0.60800
Mn64       Mn  0.50809788  0.99515152  0.09197371     1.18400
C65         C  0.61791925  0.09342961  0.10621413     0.97500
C66         C  0.61739425  0.89835779  0.11140543     0.98200
N67         N  0.41585639  0.04614270  0.45087095    -0.07000
N68         N  0.38095997  0.07347839  0.44026152    -0.63300
N69         N  0.44532748  0.94053786  0.41858620    -0.05800
N70         N  0.43028564  0.91400259  0.38458312    -0.64000
N71         N  0.41433450  0.94189394  0.45220000    -0.06500
N72         N  0.37797946  0.91633409  0.44157960    -0.63600
N73         N  0.44609952  0.04479728  0.41663560    -0.05400
N74         N  0.43200860  0.07104187  0.38202298    -0.64300
Mn75       Mn  0.41696385  0.99485018  0.00713844     1.10700
C76         C  0.39165378  0.08896663  0.39750000     0.98700
C77         C  0.38859686  0.89868265  0.39969603     0.98800
N78         N  0.59163804  0.94179879  0.44557984    -0.06500
N79         N  0.62705133  0.91626306  0.43239272    -0.61900
N80         N  0.55786488  0.04503442  0.41209208    -0.05800
N81         N  0.56865832  0.07182014  0.37658292    -0.58600
N82         N  0.59120564  0.04594367  0.44306476    -0.07100
N83         N  0.62505397  0.07340499  0.42886645    -0.61400
N84         N  0.55861362  0.94076926  0.41418908    -0.06100
N85         N  0.57132313  0.91442241  0.37905083    -0.58600
Mn86       Mn  0.59365324  0.99447398  0.00023628     1.20200
Mn87       Mn  0.50196945  0.99254796  0.41493323     1.10100
Cl88       Cl  0.50519578  0.99412601  0.00351447    -0.86600
C89         C  0.61386112  0.89926224  0.39115887     0.95700
C90         C  0.61051199  0.08981690  0.38744767     0.95500
N91         N  0.95280887  0.58214268  0.05903486    -0.06800
N92         N  0.92549306  0.61645336  0.07193007    -0.58900
N93         N  0.05848833  0.55201239  0.09026588    -0.06400
N94         N  0.08440963  0.56669269  0.12497944    -0.61000
N95         N  0.05762455  0.58340089  0.05721827    -0.06000
N96         N  0.08289997  0.61952614  0.06875097    -0.58800
N97         N  0.95349817  0.55004059  0.09129577    -0.05700
N98         N  0.92660045  0.56196662  0.12630975    -0.61400
C99         C  0.90884423  0.60327784  0.11384779     0.95400
C100        C  0.09979057  0.60854290  0.11072058     0.95200
N101        N  0.05831418  0.40719627  0.05796855    -0.06900
N102        N  0.08419554  0.37167231  0.06960035    -0.59400
N103        N  0.95417659  0.43936794  0.09233132    -0.05100
N104        N  0.92739026  0.42814223  0.12771463    -0.60700
N105        N  0.95373826  0.40643418  0.06096764    -0.07000
N106        N  0.92680286  0.37208892  0.07507813    -0.59700
N107        N  0.05863437  0.43863635  0.09089961    -0.04700
N108        N  0.08443995  0.42436508  0.12586123    -0.60800
Mn109      Mn  0.00649112  0.49502545  0.09151298     1.18400
C110        C  0.10032635  0.38277980  0.11174319     0.97500
C111        C  0.91003112  0.38633415  0.11657937     0.98200
N112        N  0.05696347  0.58259546  0.44553434    -0.07000
N113        N  0.08181694  0.61833752  0.43137956    -0.63300
N114        N  0.95267298  0.54992017  0.41490995    -0.05800
N115        N  0.92704810  0.56373075  0.37971204    -0.64000
N116        N  0.95290534  0.58171783  0.44746695    -0.06500
N117        N  0.92754861  0.61740459  0.43506128    -0.63600
N118        N  0.05707038  0.55013695  0.41366252    -0.05400
N119        N  0.08210800  0.56350662  0.37766631    -0.64300
Mn120      Mn  0.00507038  0.58245693  0.00237595     1.10700
C121        C  0.09787281  0.60595099  0.38909821     0.98700
C122        C  0.91159958  0.60568324  0.39299360     0.98800
N123        N  0.95315721  0.40511536  0.44808526    -0.06500
N124        N  0.92708147  0.36961185  0.43602864    -0.61900
N125        N  0.05741378  0.43801509  0.41427215    -0.05800
N126        N  0.08336470  0.42501349  0.37884083    -0.58600
N127        N  0.05756356  0.40593301  0.44660708    -0.07100
N128        N  0.08356369  0.37076414  0.43344736    -0.61400
N129        N  0.95231033  0.43724481  0.41574334    -0.06100
N130        N  0.92504444  0.42419162  0.38148147    -0.58600
Mn131      Mn  0.00560035  0.40604022  0.00345628     1.20200
Mn132      Mn  0.00480742  0.49377889  0.41438084     1.10100
Cl133      Cl  0.00553615  0.49430310  0.00290259    -0.88800
C134        C  0.90955873  0.38204293  0.39461855     0.95700
C135        C  0.09978248  0.38302837  0.39115449     0.95500
C136        C  0.26827642  0.24842529  0.20797896     0.44800
H137        H  0.27220852  0.24315994  0.17032769    -0.04200
C138        C  0.26093619  0.25679530  0.29662576     0.44900
H139        H  0.25690623  0.26079978  0.33453643    -0.04200
C140        C  0.30077715  0.28495640  0.22816936    -0.17900
C141        C  0.21968991  0.26556192  0.22300516    -0.17600
C142        C  0.28100423  0.20412078  0.23458218    -0.18000
C143        C  0.29649155  0.28951904  0.27499779    -0.18000
C144        C  0.21597990  0.26924098  0.27083258    -0.17600
C145        C  0.27840800  0.20863192  0.28213178    -0.17900
C146        C  0.74534821  0.25960851  0.20594333     0.44800
H147        H  0.75076850  0.26096792  0.16792129    -0.04200
C148        C  0.73308059  0.25845492  0.29465371     0.44900
H149        H  0.72816842  0.25822283  0.33271020    -0.04200
C150        C  0.70653111  0.29149566  0.22231403    -0.17900
C151        C  0.72984876  0.21180353  0.22382965    -0.17600
C152        C  0.78821957  0.27559824  0.23302488    -0.18000
C153        C  0.69914370  0.29042260  0.26909837    -0.18000
C154        C  0.72421714  0.21099143  0.27154695    -0.17600
C155        C  0.78172630  0.27609775  0.28021381    -0.17900
C156        C  0.25460561  0.75270219  0.20758159     0.44800
H157        H  0.25724996  0.75655378  0.16942456    -0.04200
C158        C  0.24902855  0.74410263  0.29648519     0.44900
H159        H  0.24688156  0.73980166  0.33463323    -0.04200
C160        C  0.28765235  0.71655741  0.22704494    -0.17900
C161        C  0.26820566  0.79690552  0.23395166    -0.17600
C162        C  0.20643169  0.73568705  0.22410137    -0.18000
C163        C  0.28429163  0.71192883  0.27387979    -0.18000
C164        C  0.26546453  0.79245747  0.28148367    -0.17600
C165        C  0.20357591  0.73198774  0.27178823    -0.17900
C166        C  0.75380476  0.74136347  0.20658350     0.44800
H167        H  0.75903642  0.74483962  0.16872007    -0.04200
C168        C  0.73971023  0.73140686  0.29442145     0.44900
H169        H  0.73424870  0.72718294  0.33194883    -0.04200
C170        C  0.71582190  0.70696494  0.21808118    -0.17900
C171        C  0.79632722  0.72179078  0.23254904    -0.17600
C172        C  0.73642718  0.78607545  0.23033858    -0.18000
C173        C  0.70717393  0.70230303  0.26399836    -0.18000
C174        C  0.78886959  0.71701606  0.27966304    -0.17600
C175        C  0.73098265  0.78120209  0.27789805    -0.17900
C176        C  0.19957389  0.67593888  0.16215347    -0.27000
C177        C  0.17701339  0.70711454  0.19196774    -0.15000
C178        C  0.12792011  0.70668283  0.19299962     0.35600
C179        C  0.10364943  0.67360561  0.16682287    -0.26400
C180        C  0.12693518  0.64105867  0.13927551    -0.15600
C181        C  0.17559636  0.64281779  0.13653085     0.36700
N182        N  0.20213968  0.61115473  0.10891086    -0.89900
H183        H  0.23667693  0.67595637  0.15928628     0.17800
H184        H  0.06615713  0.67359947  0.16768343     0.17800
N185        N  0.10156671  0.73992202  0.21872931    -0.88900
H186        H  0.21904728  0.63022145  0.08320174     0.35200
H187        H  0.18124727  0.58717464  0.09208798     0.40300
H188        H  0.12282151  0.76462569  0.23401772     0.39900
H189        H  0.08424952  0.72241155  0.24526324     0.34800
C190        C  0.16785932  0.65467452  0.28689353    -0.27000
C191        C  0.17015137  0.70180819  0.29774490    -0.15000
C192        C  0.14746370  0.71734823  0.33833538     0.35600
C193        C  0.12455804  0.68543468  0.36720714    -0.26400
C194        C  0.12275947  0.63808060  0.35667188    -0.15600
C195        C  0.14434118  0.62305579  0.31521269     0.36700
N196        N  0.14471569  0.57570049  0.30146993    -0.89900
H197        H  0.18666482  0.64158417  0.25728245     0.17800
H198        H  0.10793760  0.69807511  0.39831909     0.17800
N199        N  0.14751729  0.76504700  0.35183946    -0.88900
H200        H  0.11073193  0.56503180  0.29548172     0.35200
H201        H  0.15915393  0.55601395  0.32802401     0.40300
H202        H  0.16405302  0.78578389  0.32731727     0.39900
H203        H  0.11309857  0.77605343  0.35273409     0.34800
C204        C  0.16083595  0.27829292  0.33707021    -0.27000
C205        C  0.18115949  0.29769160  0.29735842    -0.15000
C206        C  0.17418033  0.34535054  0.28884154     0.35600
C207        C  0.14656617  0.37156510  0.31919237    -0.26400
C208        C  0.12707941  0.35241401  0.35941114    -0.15600
C209        C  0.13391565  0.30480603  0.36802847     0.36700
N210        N  0.11387355  0.28334815  0.40819849    -0.89900
H211        H  0.16690163  0.24219680  0.34448865     0.17800
H212        H  0.14175169  0.40791359  0.31218415     0.17800
N213        N  0.19690082  0.36777164  0.25076601    -0.88900
H214        H  0.12374059  0.24876684  0.41036626     0.35200
H215        H  0.07798213  0.28339705  0.40388409     0.40300
H216        H  0.23213169  0.36700508  0.25748900     0.39900
H217        H  0.18763404  0.40257144  0.24885295     0.34800
C218        C  0.17466012  0.34479086  0.12584926    -0.27000
C219        C  0.12901470  0.35121405  0.13945367    -0.15000
C220        C  0.11092987  0.32426751  0.17594585     0.35600
C221        C  0.13987270  0.29331182  0.19965411    -0.26400
C222        C  0.18760034  0.29014165  0.18943969    -0.15600
C223        C  0.20415510  0.31527032  0.15014102     0.36700
N224        N  0.25095015  0.31261062  0.13443537    -0.89900
H225        H  0.18812888  0.36391525  0.09647429     0.17800
H226        H  0.12528085  0.27315339  0.22767768     0.17800
N227        N  0.06337367  0.32766558  0.18953436    -0.88900
H228        H  0.25087661  0.29975155  0.10070492     0.35200
H229        H  0.26444123  0.34603525  0.13308844     0.40300
H230        H  0.04284874  0.32001104  0.16087432     0.39900
H231        H  0.05684307  0.36171071  0.19929400     0.34800
C232        C  0.88072614  0.30948526  0.14470681    -0.27000
C233        C  0.88071318  0.35785288  0.14849714    -0.15000
C234        C  0.85348843  0.37838368  0.18363890     0.35600
C235        C  0.82595485  0.35050375  0.21264446    -0.26400
C236        C  0.82482524  0.30241041  0.20789693    -0.15600
C237        C  0.85320045  0.28160906  0.17408513     0.36700
N238        N  0.85469074  0.23223808  0.17030239    -0.89900
H239        H  0.90233711  0.29331422  0.11874015     0.17800
H240        H  0.80331139  0.36675424  0.23752332     0.17800
N241        N  0.85260643  0.42762305  0.18895800    -0.88900
H242        H  0.87875366  0.22231344  0.14515668     0.35200
H243        H  0.82247200  0.22085908  0.15874343     0.40300
H244        H  0.83166786  0.43705506  0.21694398     0.39900
H245        H  0.83720835  0.44148358  0.15942361     0.34800
C246        C  0.83261774  0.36840676  0.36084960    -0.27000
C247        C  0.87777625  0.35309595  0.36680172    -0.15000
C248        C  0.89145594  0.31112436  0.34613149     0.35600
C249        C  0.85943782  0.28604754  0.31884889    -0.26400
C250        C  0.81367272  0.30145790  0.31285583    -0.15600
C251        C  0.80059658  0.34309472  0.33526652     0.36700
N252        N  0.75541757  0.36202131  0.33177006    -0.89900
H253        H  0.82182497  0.40048400  0.37672324     0.17800
H254        H  0.87027296  0.25457674  0.30191019     0.17800
N255        N  0.93783542  0.29455879  0.35229358    -0.88900
H256        H  0.73228209  0.33911618  0.34734836     0.35200
H257        H  0.74819732  0.36664533  0.29685775     0.40300
H258        H  0.96026176  0.31820418  0.33658266     0.39900
H259        H  0.94236248  0.26323039  0.33506728     0.34800
C260        C  0.86892552  0.69712673  0.30834899    -0.27000
C261        C  0.82063453  0.69116118  0.31206512    -0.15000
C262        C  0.80388225  0.65829059  0.34463785     0.35600
C263        C  0.83472779  0.63160164  0.37033390    -0.26400
C264        C  0.88225573  0.63597119  0.36470334    -0.15600
C265        C  0.89995594  0.66975872  0.33391037     0.36700
N266        N  0.94876761  0.67741358  0.32775528    -0.89900
H267        H  0.88273242  0.72260168  0.28457141     0.17800
H268        H  0.82113538  0.60634742  0.39453952     0.17800
N269        N  0.75565541  0.64993808  0.35129052    -0.88900
H270        H  0.95697550  0.66951657  0.29344941     0.35200
H271        H  0.96834365  0.65536112  0.34841160     0.40300
H272        H  0.74995817  0.61465324  0.34692384     0.39900
H273        H  0.74744209  0.65777946  0.38561672     0.34800
C274        C  0.87673689  0.68083084  0.13549263    -0.27000
C275        C  0.88126656  0.63356080  0.14550549    -0.15000
C276        C  0.86091454  0.61636864  0.18662673     0.35600
C277        C  0.83654512  0.64640119  0.21608676    -0.26400
C278        C  0.83085212  0.69344577  0.20556965    -0.15600
C279        C  0.85211636  0.71082394  0.16510583     0.36700
N280        N  0.84836861  0.75893071  0.15403949    -0.89900
H281        H  0.89266738  0.69462082  0.10446443     0.17800
H282        H  0.81851794  0.63174693  0.24545496     0.17800
N283        N  0.86302627  0.56805426  0.19752370    -0.88900
H284        H  0.86563027  0.76637517  0.12308223     0.35200
H285        H  0.86522055  0.77738342  0.18002377     0.40300
H286        H  0.84370672  0.55052385  0.17260353     0.39900
H287        H  0.84715506  0.56122454  0.22934899     0.34800
C288        C  0.65157913  0.16419566  0.28498057    -0.27000
C289        C  0.69704264  0.17539777  0.29810838    -0.15000
C290        C  0.71403300  0.15762314  0.34011653     0.35600
C291        C  0.68528888  0.12992902  0.36835655    -0.26400
C292        C  0.63946509  0.11931176  0.35579763    -0.15600
C293        C  0.62272005  0.13647132  0.31308508     0.36700
N294        N  0.57616297  0.12687398  0.29865859    -0.89900
H295        H  0.63744746  0.17928430  0.25387868     0.17800
H296        H  0.69885353  0.11677202  0.40061158     0.17800
N297        N  0.76039898  0.16841561  0.35428770    -0.88900
H298        H  0.57002392  0.14043708  0.26575082     0.35200
H299        H  0.55390294  0.14422571  0.32124738     0.40300
H300        H  0.78301006  0.15388285  0.33008686     0.39900
H301        H  0.76777079  0.15299765  0.38608691     0.34800
C302        C  0.67824495  0.10304897  0.16702421    -0.27000
C303        C  0.64889006  0.12297017  0.13401253    -0.15000
C304        C  0.64972048  0.17082277  0.12747949     0.35600
C305        C  0.67808341  0.19812075  0.15571513    -0.26400
C306        C  0.70601791  0.17903600  0.19086721    -0.15600
C307        C  0.70749535  0.13024491  0.19480715     0.36700
N308        N  0.73904483  0.10697850  0.22511832    -0.89900
H309        H  0.67880347  0.06591160  0.17092190     0.17800
H310        H  0.67696446  0.23486691  0.15062827     0.17800
N311        N  0.62066697  0.19171358  0.09308761    -0.88900
H312        H  0.71963230  0.09046883  0.25082200     0.35200
H313        H  0.76156302  0.13002056  0.24119486     0.40300
H314        H  0.63223488  0.18054438  0.06070226     0.39900
H315        H  0.62438942  0.22755241  0.09336002     0.34800
C316        C  0.35660756  0.16453091  0.21909551    -0.27000
C317        C  0.30917328  0.16880712  0.20911250    -0.15000
C318        C  0.29167576  0.14634460  0.16939404     0.35600
C319        C  0.32199525  0.12222743  0.14006980    -0.26400
C320        C  0.36959584  0.11887251  0.14934677    -0.15600
C321        C  0.38693611  0.14002414  0.18980438     0.36700
N322        N  0.43548493  0.13824316  0.20025531    -0.89900
H323        H  0.37077024  0.18306071  0.24825879     0.17800
H324        H  0.30785793  0.10571566  0.10967313     0.17800
N325        N  0.24346543  0.14771580  0.15728516    -0.88900
H326        H  0.44235828  0.15478391  0.23157523     0.35200
H327        H  0.45295344  0.15694859  0.17464509     0.40300
H328        H  0.22385230  0.16468065  0.18234924     0.39900
H329        H  0.23134005  0.11375497  0.15696847     0.34800
C330        C  0.30354907  0.12924098  0.30870935    -0.27000
C331        C  0.30397333  0.17737399  0.31555861    -0.15000
C332        C  0.33177032  0.19480699  0.35223544     0.35600
C333        C  0.35907441  0.16502000  0.37874032    -0.26400
C334        C  0.36060459  0.11805996  0.36959838    -0.15600
C335        C  0.33204157  0.09956329  0.33490136     0.36700
N336        N  0.33241606  0.05083239  0.32618776    -0.89900
H337        H  0.28175039  0.11481318  0.28202721     0.17800
H338        H  0.38044131  0.17910695  0.40603663     0.17800
N339        N  0.33415234  0.24281488  0.36260242    -0.88900
H340        H  0.30976285  0.04265863  0.29933296     0.35200
H341        H  0.31972547  0.03431277  0.35579343     0.40300
H342        H  0.36885262  0.25294742  0.36123221     0.39900
H343        H  0.32262078  0.24754670  0.39656099     0.34800
C344        C  0.69503134  0.86442285  0.13170996    -0.27000
C345        C  0.64773327  0.86992639  0.14219599    -0.15000
C346        C  0.63045295  0.84928153  0.18305536     0.35600
C347        C  0.65998364  0.82371357  0.21171919    -0.26400
C348        C  0.70734308  0.81845200  0.20169050    -0.15600
C349        C  0.72470067  0.83912137  0.16098184     0.36700
N350        N  0.77262164  0.83470311  0.14926048    -0.89900
H351        H  0.70931053  0.88012005  0.10078682     0.17800
H352        H  0.64501149  0.80680174  0.24143261     0.17800
N353        N  0.58259071  0.85322252  0.19544412    -0.88900
H354        H  0.78679389  0.86777473  0.14679583     0.35200
H355        H  0.77486151  0.81933974  0.11666338     0.40300
H356        H  0.58059621  0.86844188  0.22813474     0.39900
H357        H  0.56866396  0.82003185  0.19790990     0.34800
C358        C  0.67242161  0.79493060  0.34082183    -0.27000
C359        C  0.70447840  0.81390654  0.30901454    -0.15000
C360        C  0.70790870  0.86275905  0.30656290     0.35600
C361        C  0.67707619  0.89013624  0.33257330    -0.26400
C362        C  0.64385765  0.87015822  0.36203475    -0.15600
C363        C  0.64205270  0.82226350  0.36671553     0.36700
N364        N  0.60936247  0.80146084  0.39809137    -0.89900
H365        H  0.66905084  0.75821301  0.34480682     0.17800
H366        H  0.67975733  0.92733464  0.33053075     0.17800
N367        N  0.74329327  0.88585583  0.28025721    -0.88900
H368        H  0.61286768  0.76562965  0.39829594     0.35200
H369        H  0.57617107  0.80842613  0.38563893     0.40300
H370        H  0.76750076  0.86282185  0.26682949     0.39900
H371        H  0.72739407  0.90272330  0.25262206     0.34800
C372        C  0.32503404  0.79917934  0.34380563    -0.27000
C373        C  0.29319089  0.82157628  0.31459627    -0.15000
C374        C  0.29117612  0.87042970  0.31601577     0.35600
C375        C  0.32250381  0.89490891  0.34413659    -0.26400
C376        C  0.35563378  0.87197148  0.37115333    -0.15600
C377        C  0.35644911  0.82366510  0.37142189     0.36700
N378        N  0.38982501  0.79959610  0.39913427    -0.89900
H379        H  0.32648487  0.76215239  0.34458007     0.17800
H380        H  0.32095965  0.93220960  0.34488851     0.17800
N381        N  0.25713332  0.89625728  0.29088858    -0.88900
H382        H  0.38663825  0.76398034  0.39474131     0.35200
H383        H  0.38218813  0.80636088  0.43381846     0.40300
H384        H  0.23364779  0.87473373  0.27409813     0.39900
H385        H  0.27443854  0.91543366  0.26555454     0.34800
C386        C  0.31611134  0.87811627  0.14213019    -0.27000
C387        C  0.36399955  0.87610072  0.15058413    -0.15000
C388        C  0.37965925  0.85119518  0.18948238     0.35600
C389        C  0.34727128  0.82895149  0.21856332    -0.26400
C390        C  0.29948647  0.83007207  0.20932686    -0.15600
C391        C  0.28384330  0.85566412  0.17081639     0.36700
N392        N  0.23559950  0.85910106  0.15924638    -0.89900
H393        H  0.30332707  0.89739703  0.11275135     0.17800
H394        H  0.35973501  0.80799160  0.24683522     0.17800
N395        N  0.42835572  0.84683282  0.19832431    -0.88900
H396        H  0.22654429  0.89391800  0.16093061     0.35200
H397        H  0.21467323  0.84229536  0.18346587     0.40300
H398        H  0.44277322  0.82797165  0.17108921     0.39900
H399        H  0.43402699  0.82759469  0.22836032     0.34800
C400        C  0.38524854  0.65567865  0.33204677    -0.27000
C401        C  0.36254120  0.62238755  0.35907897    -0.15000
C402        C  0.31425910  0.61607110  0.35502802     0.35600
C403        C  0.28937888  0.64617568  0.32692545    -0.26400
C404        C  0.31210450  0.68016819  0.30122060    -0.15600
C405        C  0.36036819  0.68459235  0.30304421     0.36700
N406        N  0.38384023  0.72002099  0.27754878    -0.89900
H407        H  0.42233878  0.66052264  0.33461886     0.17800
H408        H  0.25220675  0.64295233  0.32481680     0.17800
N409        N  0.29045047  0.58049468  0.38036932    -0.88900
H410        H  0.40838840  0.70433899  0.25615355     0.35200
H411        H  0.40153471  0.74095260  0.30098725     0.40300
H412        H  0.30122855  0.54887466  0.36683338     0.39900
H413        H  0.25478032  0.58224855  0.37472219     0.34800
C414        C  0.34765926  0.61707311  0.16783781    -0.27000
C415        C  0.37936763  0.64034402  0.13924471    -0.15000
C416        C  0.38147829  0.68899007  0.14032891     0.35600
C417        C  0.35082578  0.71305305  0.16913705    -0.26400
C418        C  0.31933258  0.68960775  0.19755423    -0.15600
C419        C  0.31746956  0.64121796  0.19661858     0.36700
N420        N  0.28324247  0.61657995  0.22277907    -0.89900
H421        H  0.34520306  0.57981569  0.16687817     0.17800
H422        H  0.35154697  0.75025504  0.16940593     0.17800
N423        N  0.41310443  0.71391366  0.11103587    -0.88900
H424        H  0.30030146  0.59285719  0.24391366     0.35200
H425        H  0.26269242  0.59797464  0.19971935     0.40300
H426        H  0.44650714  0.70749341  0.12316081     0.39900
H427        H  0.40798242  0.74943097  0.11419349     0.34800
C428        C  0.59618085  0.66115798  0.31970936    -0.27000
C429        C  0.60967797  0.61678345  0.33314513    -0.15000
C430        C  0.64986211  0.59728727  0.31334606     0.35600
C431        C  0.67977585  0.62523883  0.28761012    -0.26400
C432        C  0.67039603  0.67206936  0.28224981    -0.15600
C433        C  0.62607879  0.68875647  0.29348405     0.36700
N434        N  0.61094659  0.73296635  0.27777184    -0.89900
H435        H  0.56371489  0.67551267  0.33172249     0.17800
H436        H  0.71183426  0.61103982  0.27435484     0.17800
N437        N  0.66139451  0.54986620  0.32070766    -0.88900
H438        H  0.59806296  0.75124061  0.30608291     0.35200
H439        H  0.58298546  0.72768450  0.25559000     0.40300
H440        H  0.69364205  0.54840687  0.33687833     0.39900
H441        H  0.66451389  0.53406630  0.28840350     0.34800
C442        C  0.64601588  0.70014465  0.17091289    -0.27000
C443        C  0.68931236  0.68284618  0.18284012    -0.15000
C444        C  0.70479711  0.64091683  0.16456696     0.35600
C445        C  0.67708240  0.61711326  0.13354062    -0.26400
C446        C  0.63348924  0.63411869  0.12144619    -0.15600
C447        C  0.61739854  0.67568375  0.14105088     0.36700
N448        N  0.57197572  0.69285146  0.13159724    -0.89900
H449        H  0.63394963  0.73221420  0.18563786     0.17800
H450        H  0.68981041  0.58506342  0.11917760     0.17800
N451        N  0.74821715  0.62190719  0.17792966    -0.88900
H452        H  0.57523994  0.72596572  0.11769693     0.35200
H453        H  0.55408131  0.69546458  0.16298830     0.40300
H454        H  0.76806181  0.61727365  0.14799740     0.39900
H455        H  0.74222513  0.58947204  0.19257456     0.34800
C456        C  0.60719294  0.32742958  0.35473925    -0.27000
C457        C  0.60481650  0.37473651  0.34583722    -0.15000
C458        C  0.62887180  0.39367934  0.30778419     0.35600
C459        C  0.65839494  0.36529517  0.28243326    -0.26400
C460        C  0.66347652  0.31827956  0.29337002    -0.15600
C461        C  0.63631993  0.29915656  0.32903766     0.36700
N462        N  0.63838493  0.25118240  0.33990150    -0.89900
H463        H  0.58838346  0.31252880  0.38363590     0.17800
H464        H  0.67897976  0.38089679  0.25528256     0.17800
N465        N  0.62476111  0.44121929  0.29424031    -0.88900
H466        H  0.60503426  0.23753185  0.33688442     0.35200
H467        H  0.64861130  0.24770695  0.37436101     0.40300
H468        H  0.59909844  0.45800579  0.31322278     0.39900
H469        H  0.61326196  0.44180939  0.26001614     0.34800
C470        C  0.60848155  0.34598945  0.15548187    -0.27000
C471        C  0.63288899  0.37726625  0.12738307    -0.15000
C472        C  0.68154396  0.37992601  0.13043951     0.35600
C473        C  0.70461768  0.35095452  0.16144288    -0.26400
C474        C  0.68014886  0.31987611  0.18938411    -0.15600
C475        C  0.63158023  0.31703002  0.18635751     0.36700
N476        N  0.60593454  0.28517183  0.21478256    -0.89900
H477        H  0.57112850  0.34389198  0.15317022     0.17800
H478        H  0.74191249  0.35276465  0.16401755     0.17800
N479        N  0.70747363  0.41115666  0.10166132    -0.88900
H480        H  0.57043808  0.28808344  0.20873055     0.35200
H481        H  0.61531100  0.25177680  0.20528197     0.40300
H482        H  0.70435773  0.39976766  0.06754669     0.39900
H483        H  0.74271236  0.40972674  0.10957742     0.34800
C484        C  0.29516300  0.35072103  0.33352945    -0.27000
C485        C  0.32114476  0.32391086  0.30284029    -0.15000
C486        C  0.36972967  0.32834998  0.30114317     0.35600
C487        C  0.39117031  0.35951512  0.33085902    -0.26400
C488        C  0.36518146  0.38486428  0.36290423    -0.15600
C489        C  0.31651525  0.38121616  0.36349492     0.36700
N490        N  0.28801757  0.40573207  0.39572715    -0.89900
H491        H  0.25799920  0.34695067  0.33541010     0.17800
H492        H  0.42857470  0.36234160  0.33064832     0.17800
N493        N  0.39717729  0.29964280  0.27126377    -0.88900
H494        H  0.29248191  0.44107351  0.39031645     0.35200
H495        H  0.29818244  0.39720434  0.42929500     0.40300
H496        H  0.39263791  0.26541833  0.28157517     0.39900
H497        H  0.43238939  0.30714426  0.27473231     0.34800
C498        C  0.38679335  0.32763169  0.13955478    -0.27000
C499        C  0.38145065  0.37544846  0.14363655    -0.15000
C500        C  0.35049365  0.39363570  0.17622288     0.35600
C501        C  0.32494475  0.36360515  0.20394356    -0.26400
C502        C  0.32934476  0.31565165  0.19913189    -0.15600
C503        C  0.36063833  0.29765304  0.16668837     0.36700
N504        N  0.36664590  0.24907529  0.16165707    -0.89900
H505        H  0.41043880  0.31321282  0.11428550     0.17800
H506        H  0.30131264  0.37810931  0.22882953     0.17800
N507        N  0.34502898  0.44239820  0.18142914    -0.88900
H508        H  0.40143516  0.24143928  0.16777421     0.35200
H509        H  0.35918559  0.24024597  0.12746825     0.40300
H510        H  0.35280776  0.45094018  0.21563006     0.39900
H511        H  0.31028200  0.45043830  0.17563560     0.34800
N512        N  0.58818492  0.45143332  0.54159502    -0.06800
N513        N  0.62156740  0.44249489  0.57127745    -0.58900
N514        N  0.54440153  0.41854979  0.94028921    -0.06400
N515        N  0.54656324  0.38835371  0.90657581    -0.61000
N516        N  0.57738576  0.44934488  0.93623152    -0.06000
N517        N  0.60289658  0.44097289  0.89938571    -0.58800
N518        N  0.55533596  0.42031876  0.54496784    -0.05700
N519        N  0.56520580  0.38979410  0.57701297    -0.61400
C520        C  0.60651031  0.40397685  0.59322589     0.95400
C521        C  0.58275366  0.40317545  0.88099872     0.95200
N522        N  0.40652894  0.45219455  0.95430576    -0.06900
N523        N  0.37497425  0.44615843  0.92220517    -0.59400
N524        N  0.44931555  0.42204658  0.55566466    -0.05100
N525        N  0.44365726  0.39031341  0.58752339    -0.60700
N526        N  0.41735499  0.45393349  0.55908013    -0.07000
N527        N  0.38891071  0.44446213  0.59349956    -0.59700
N528        N  0.43874202  0.42058869  0.95127411    -0.04700
N529        N  0.43008472  0.39222368  0.91706905    -0.60800
Mn530      Mn  0.49690820  0.41900265  0.49813891     1.18400
C531        C  0.39028370  0.40863282  0.89935810     0.97500
C532        C  0.40622298  0.40492389  0.61109790     0.98200
N533        N  0.57812147  0.55479177  0.93249686    -0.07000
N534        N  0.60385387  0.55810647  0.89511217    -0.63300
N535        N  0.55642316  0.59236332  0.53824034    -0.05800
N536        N  0.56649088  0.62374673  0.56924442    -0.64000
N537        N  0.58813436  0.56001379  0.53724222    -0.06500
N538        N  0.62070714  0.56879167  0.56761492    -0.63600
N539        N  0.54653981  0.58722508  0.93328113    -0.05400
N540        N  0.55039698  0.61363057  0.89625837    -0.64300
Mn541      Mn  0.58489136  0.50404372  0.98714430     1.10700
C542        C  0.58609680  0.59462352  0.87250845     0.98700
C543        C  0.60648995  0.60854444  0.58740455     0.98800
N544        N  0.41787581  0.56186423  0.55540636    -0.06500
N545        N  0.38935159  0.57199268  0.58938101    -0.61900
N546        N  0.43958791  0.58871848  0.94553466    -0.05800
N547        N  0.43000001  0.61593521  0.91058939    -0.58600
N548        N  0.40701859  0.55768626  0.95111600    -0.07100
N549        N  0.37436067  0.56299634  0.92007400    -0.61400
N550        N  0.44910911  0.59441526  0.55009054    -0.06100
N551        N  0.44226112  0.62763860  0.58043094    -0.58600
Mn552      Mn  0.41055074  0.50642701  0.50556507     1.20200
Mn553      Mn  0.49807420  0.59256281  0.99169216     1.10100
Cl554      Cl  0.49767540  0.50561637  0.49607464    -0.86600
C555        C  0.40503375  0.61293838  0.60491696     0.95700
C556        C  0.38934269  0.59930815  0.89494696     0.95500
N557        N  0.41849909  0.94326794  0.56319948    -0.06800
N558        N  0.38319949  0.91771393  0.57700751    -0.58900
N559        N  0.45297711  0.04785189  0.59318241    -0.06400
N560        N  0.44184433  0.07476627  0.62833000    -0.61000
N561        N  0.41964452  0.04782314  0.56225534    -0.06000
N562        N  0.38536142  0.07468001  0.57609384    -0.58800
N563        N  0.45143567  0.94304458  0.59457843    -0.05700
N564        N  0.43875590  0.91717630  0.63025672    -0.61400
C565        C  0.39623237  0.90110574  0.61866370     0.95400
C566        C  0.39973867  0.09178987  0.61719230     0.95200
N567        N  0.59493020  0.04755859  0.55480964    -0.06900
N568        N  0.62950881  0.07576974  0.56455295    -0.59400
N569        N  0.56341480  0.94265118  0.59003282    -0.05100
N570        N  0.57592767  0.91562342  0.62455444    -0.60700
N571        N  0.59532447  0.94257287  0.55733362    -0.07000
N572        N  0.63011156  0.91544025  0.56948898    -0.59700
N573        N  0.56419871  0.04749432  0.58862389    -0.04700
N574        N  0.57751313  0.07564379  0.62196706    -0.60800
Mn575      Mn  0.50810090  0.99514986  0.59197485     1.18400
C576        C  0.61792331  0.09342648  0.60621786     0.97500
C577        C  0.61739392  0.89835273  0.61140142     0.98200
N578        N  0.41585267  0.04614125  0.95086855    -0.07000
N579        N  0.38095591  0.07347616  0.94025816    -0.63300
N580        N  0.44532697  0.94053747  0.91858595    -0.05800
N581        N  0.43028693  0.91400277  0.88458197    -0.64000
N582        N  0.41433326  0.94189252  0.95219909    -0.06500
N583        N  0.37797896  0.91633238  0.94157704    -0.63600
N584        N  0.44609611  0.04479585  0.91663352    -0.05400
N585        N  0.43200500  0.07103921  0.88202005    -0.64300
Mn586      Mn  0.41696712  0.99485092  0.50713969     1.10700
C587        C  0.39164967  0.08896342  0.89749622     0.98700
C588        C  0.38859826  0.89868211  0.89969337     0.98800
N589        N  0.59163434  0.94179733  0.94557735    -0.06500
N590        N  0.62704587  0.91625948  0.93238912    -0.61900
N591        N  0.55786030  0.04503493  0.91209059    -0.05800
N592        N  0.56865188  0.07182316  0.87658267    -0.58600
N593        N  0.59120125  0.04594392  0.94306298    -0.07100
N594        N  0.62504786  0.07340786  0.92886593    -0.61400
N595        N  0.55860912  0.94076885  0.91418744    -0.06100
N596        N  0.57131573  0.91442068  0.87904922    -0.58600
Mn597      Mn  0.59365623  0.99447428  0.50023790     1.20200
Mn598      Mn  0.50196636  0.99254779  0.91493225     1.10100
Cl599      Cl  0.50519882  0.99412622  0.50351551    -0.86600
C600        C  0.61385315  0.89925830  0.89115589     0.95700
C601        C  0.61050477  0.08982135  0.88744814     0.95500
N602        N  0.95280781  0.58214314  0.55902996    -0.06800
N603        N  0.92549139  0.61645358  0.57192491    -0.58900
N604        N  0.05848823  0.55201292  0.59025962    -0.06400
N605        N  0.08440849  0.56669307  0.62497399    -0.61000
N606        N  0.05762310  0.58340278  0.55721329    -0.06000
N607        N  0.08289574  0.61952946  0.56874849    -0.58800
N608        N  0.95349771  0.55004113  0.59129086    -0.05700
N609        N  0.92659987  0.56196707  0.62630473    -0.61400
C610        C  0.90884288  0.60327806  0.61384278     0.95400
C611        C  0.09978656  0.60854521  0.61071798     0.95200
N612        N  0.05831191  0.40719477  0.55796192    -0.06900
N613        N  0.08419122  0.37166945  0.56959421    -0.59400
N614        N  0.95417715  0.43936713  0.59232800    -0.05100
N615        N  0.92739520  0.42813989  0.62771408    -0.60700
N616        N  0.95373716  0.40643333  0.56096435    -0.07000
N617        N  0.92680462  0.37208686  0.57507762    -0.59700
N618        N  0.05863393  0.43863552  0.59089240    -0.04700
N619        N  0.08443904  0.42436339  0.62585394    -0.60800
Mn620      Mn  0.00649110  0.49502539  0.59150722     1.18400
C621        C  0.10032277  0.38277683  0.61173672     0.97500
C622        C  0.91003663  0.38633107  0.61658078     0.98200
N623        N  0.05696735  0.58259710  0.94554154    -0.07000
N624        N  0.08182288  0.61833869  0.93138888    -0.63300
N625        N  0.95267680  0.54992378  0.91491249    -0.05800
N626        N  0.92705376  0.56373564  0.87971346    -0.64000
N627        N  0.95290844  0.58172124  0.94746979    -0.06500
N628        N  0.92755319  0.61740897  0.93506297    -0.63600
N629        N  0.05707529  0.55013889  0.91366950    -0.05400
N630        N  0.08211582  0.56350826  0.87767516    -0.64300
Mn631      Mn  0.00506842  0.58245637  0.50237075     1.10700
C632        C  0.09788138  0.60595207  0.88910853     0.98700
C633        C  0.91160573  0.60568885  0.89299410     0.98800
N634        N  0.95316120  0.40511577  0.94808925    -0.06500
N635        N  0.92708557  0.36961205  0.93603272    -0.61900
N636        N  0.05741785  0.43801667  0.91427823    -0.05800
N637        N  0.08336717  0.42501456  0.87884598    -0.58600
N638        N  0.05756751  0.40593414  0.94661281    -0.07100
N639        N  0.08356578  0.37076431  0.93345156    -0.61400
N640        N  0.95231444  0.43724516  0.91574715    -0.06100
N641        N  0.92504899  0.42419124  0.88148504    -0.58600
Mn642      Mn  0.00559728  0.40603936  0.50345118     1.20200
Mn643      Mn  0.00481141  0.49378073  0.91438578     1.10100
Cl644      Cl  0.00553409  0.49430229  0.50289746    -0.88800
C645        C  0.90956318  0.38204248  0.89462224     0.95700
C646        C  0.09978357  0.38302859  0.89115823     0.95500
C647        C  0.26827650  0.24843287  0.70798026     0.44800
H648        H  0.27221016  0.24317194  0.67032840    -0.04200
C649        C  0.26092867  0.25679407  0.79662724     0.44900
H650        H  0.25689505  0.26079493  0.83453790    -0.04200
C651        C  0.30077374  0.28496451  0.72817630    -0.17900
C652        C  0.21968767  0.26556488  0.72300460    -0.17600
C653        C  0.28100582  0.20412648  0.73458038    -0.18000
C654        C  0.29648358  0.28952200  0.77500498    -0.18000
C655        C  0.21597361  0.26923943  0.77083186    -0.17600
C656        C  0.27840532  0.20863307  0.78213029    -0.17900
C657        C  0.74534760  0.25960982  0.70594551     0.44800
H658        H  0.75076626  0.26096907  0.66792333    -0.04200
C659        C  0.73308175  0.25845649  0.79465586     0.44900
H660        H  0.72817040  0.25822398  0.83271240    -0.04200
C661        C  0.70653136  0.29149823  0.72231644    -0.17900
C662        C  0.72984763  0.21180516  0.72383239    -0.17600
C663        C  0.78822037  0.27559829  0.73302615    -0.18000
C664        C  0.69914492  0.29042479  0.76910109    -0.18000
C665        C  0.72421608  0.21099329  0.77154949    -0.17600
C666        C  0.78172788  0.27609857  0.78021549    -0.17900
C667        C  0.25460826  0.75269542  0.70758158     0.44800
H668        H  0.25725165  0.75654240  0.66942402    -0.04200
C669        C  0.24903149  0.74410553  0.79648600     0.44900
H670        H  0.24688427  0.73980891  0.83463452    -0.04200
C671        C  0.28765626  0.71655329  0.72704848    -0.17900
C672        C  0.26820826  0.79690189  0.73394651    -0.17600
C673        C  0.20643436  0.73568211  0.72410394    -0.18000
C674        C  0.28429521  0.71192933  0.77388406    -0.18000
C675        C  0.26546726  0.79245899  0.78147899    -0.17600
C676        C  0.20357862  0.73198801  0.77179102    -0.17900
C677        C  0.75379776  0.74135699  0.70658120     0.44800
H678        H  0.75902838  0.74483210  0.66871755    -0.04200
C679        C  0.73970442  0.73140214  0.79441962     0.44900
H680        H  0.73424306  0.72717808  0.83194717    -0.04200
C681        C  0.71581411  0.70695973  0.71807983    -0.17900
C682        C  0.79632062  0.72178485  0.73254616    -0.17600
C683        C  0.73642163  0.78606950  0.73033580    -0.18000
C684        C  0.70716675  0.70229903  0.76399721    -0.18000
C685        C  0.78886398  0.71701070  0.77966043    -0.17600
C686        C  0.73097669  0.78119732  0.77789553    -0.17900
C687        C  0.19957489  0.67591851  0.66217211    -0.27000
C688        C  0.17701545  0.70710670  0.69197362    -0.15000
C689        C  0.12792189  0.70668738  0.69299458     0.35600
C690        C  0.10364855  0.67361617  0.66681218    -0.26400
C691        C  0.12693224  0.64105896  0.63927499    -0.15600
C692        C  0.17559499  0.64280004  0.63654830     0.36700
N693        N  0.20213706  0.61112137  0.60894524    -0.89900
H694        H  0.23667856  0.67592457  0.65931630     0.17800
H695        H  0.06615607  0.67362101  0.66766246     0.17800
N696        N  0.10157131  0.73993246  0.71871950    -0.88900
H697        H  0.21906209  0.63017665  0.58323863     0.35200
H698        H  0.18124251  0.58714583  0.59211920     0.40300
H699        H  0.12282872  0.76462999  0.73401368     0.39900
H700        H  0.08424476  0.72242500  0.74524960     0.34800
C701        C  0.16787023  0.65467366  0.78690458    -0.27000
C702        C  0.17015540  0.70180886  0.79775011    -0.15000
C703        C  0.14746545  0.71735040  0.83833898     0.35600
C704        C  0.12456137  0.68543720  0.86721285    -0.26400
C705        C  0.12276918  0.63808161  0.85668270    -0.15600
C706        C  0.14435755  0.62305463  0.81522785     0.36700
N707        N  0.14474650  0.57569659  0.80149498    -0.89900
H708        H  0.18667941  0.64158232  0.75729628     0.17800
H709        H  0.10793738  0.69807890  0.89832241     0.17800
N710        N  0.14751538  0.76505024  0.85183935    -0.88900
H711        H  0.11076676  0.56501769  0.79550328     0.35200
H712        H  0.15918556  0.55601932  0.82805568     0.40300
H713        H  0.16405064  0.78578614  0.82731617     0.39900
H714        H  0.11309579  0.77605448  0.85273208     0.34800
C715        C  0.16082288  0.27828965  0.83706452    -0.27000
C716        C  0.18115210  0.29768990  0.79735622    -0.15000
C717        C  0.17417876  0.34535051  0.78884311     0.35600
C718        C  0.14656836  0.37156598  0.81919650    -0.26400
C719        C  0.12707684  0.35241346  0.85941234    -0.15600
C720        C  0.13390332  0.30480300  0.86802340     0.36700
N721        N  0.11385081  0.28334261  0.90818693    -0.89900
H722        H  0.16688314  0.24219190  0.84447949     0.17800
H723        H  0.14175964  0.40791607  0.81219209     0.17800
N724        N  0.19690161  0.36777107  0.75076836    -0.88900
H725        H  0.12370894  0.24875853  0.91034945     0.35200
H726        H  0.07795988  0.28340120  0.90386784     0.40300
H727        H  0.23213093  0.36699932  0.75748845     0.39900
H728        H  0.18764166  0.40257480  0.74886069     0.34800
C729        C  0.17466070  0.34480007  0.62585245    -0.27000
C730        C  0.12901098  0.35121129  0.63944748    -0.15000
C731        C  0.11092429  0.32425713  0.67593316     0.35600
C732        C  0.13986955  0.29330704  0.69964615    -0.26400
C733        C  0.18759936  0.29014591  0.68943898    -0.15600
C734        C  0.20415675  0.31528296  0.65014694     0.36700
N735        N  0.25095625  0.31263713  0.63445261    -0.89900
H736        H  0.18813179  0.36393149  0.59648314     0.17800
H737        H  0.12527699  0.27314397  0.72766603     0.17800
N738        N  0.06336367  0.32764154  0.68950974    -0.88900
H739        H  0.25089450  0.29978349  0.60072000     0.35200
H740        H  0.26443914  0.34606534  0.63311471     0.40300
H741        H  0.04284831  0.31998281  0.66084374     0.39900
H742        H  0.05682097  0.36168422  0.69926925     0.34800
C743        C  0.88072148  0.30948249  0.64470011    -0.27000
C744        C  0.88072042  0.35784936  0.64850043    -0.15000
C745        C  0.85350725  0.37837872  0.68365224     0.35600
C746        C  0.82596994  0.35049924  0.71265475    -0.26400
C747        C  0.82482789  0.30240720  0.70789702    -0.15600
C748        C  0.85319400  0.28160634  0.67407675     0.36700
N749        N  0.85467288  0.23223570  0.67028418    -0.89900
H750        H  0.90232417  0.29331180  0.61872622     0.17800
H751        H  0.80333395  0.36674987  0.73754051     0.17800
N752        N  0.85264085  0.42761678  0.68898579    -0.88900
H753        H  0.87873304  0.22231076  0.64513350     0.35200
H754        H  0.82245293  0.22086583  0.65872495     0.40300
H755        H  0.83171187  0.43704691  0.71697889     0.39900
H756        H  0.83723993  0.44149028  0.65945846     0.34800
C757        C  0.83261812  0.36839957  0.86086383    -0.27000
C758        C  0.87778019  0.35309505  0.86680566    -0.15000
C759        C  0.89146341  0.31113018  0.84612378     0.35600
C760        C  0.85944459  0.28605331  0.81884166    -0.26400
C761        C  0.81367595  0.30145762  0.81285810    -0.15600
C762        C  0.80059751  0.34308893  0.83527831     0.36700
N763        N  0.75541776  0.36201432  0.83178530    -0.89900
H764        H  0.82182295  0.40047227  0.87674509     0.17800
H765        H  0.87028229  0.25458759  0.80189500     0.17800
N766        N  0.93784723  0.29457200  0.85227364    -0.88900
H767        H  0.73228276  0.33910602  0.84736025     0.35200
H768        H  0.74819788  0.36664397  0.79687390     0.40300
H769        H  0.96026599  0.31822454  0.83656415     0.39900
H770        H  0.94237700  0.26324789  0.83503888     0.34800
C771        C  0.86892242  0.69712932  0.80834766    -0.27000
C772        C  0.82063186  0.69115928  0.81206317    -0.15000
C773        C  0.80388282  0.65828797  0.84463654     0.35600
C774        C  0.83473090  0.63160206  0.87033348    -0.26400
C775        C  0.88225888  0.63597597  0.86470405    -0.15600
C776        C  0.89995559  0.66976546  0.83391081     0.36700
N777        N  0.94876647  0.67742667  0.82775748    -0.89900
H778        H  0.88272694  0.72260512  0.78456961     0.17800
H779        H  0.82114053  0.60634670  0.89453899     0.17800
N780        N  0.75565660  0.64993154  0.85128851    -0.88900
H781        H  0.95697680  0.66953008  0.79345183     0.35200
H782        H  0.96834441  0.65537752  0.84841499     0.40300
H783        H  0.74996254  0.61464626  0.84692138     0.39900
H784        H  0.74744210  0.65777204  0.88561457     0.34800
C785        C  0.87672790  0.68082927  0.63548544    -0.27000
C786        C  0.88126398  0.63356024  0.64550057    -0.15000
C787        C  0.86091776  0.61636836  0.68662488     0.35600
C788        C  0.83654640  0.64639943  0.71608470    -0.26400
C789        C  0.83084745  0.69344280  0.70556593    -0.15600
C790        C  0.85210716  0.71082137  0.66509973     0.36700
N791        N  0.84835536  0.75892761  0.65403256    -0.89900
H792        H  0.89265411  0.69461934  0.60445510     0.17800
H793        H  0.81852252  0.63174436  0.74545447     0.17800
N794        N  0.86303815  0.56805532  0.69752587    -0.88900
H795        H  0.86561423  0.76637258  0.62307388     0.35200
H796        H  0.86520789  0.77738206  0.68001522     0.40300
H797        H  0.84371807  0.55051984  0.67261005     0.39900
H798        H  0.84717234  0.56122608  0.72935422     0.34800
C799        C  0.65157520  0.16419998  0.78498152    -0.27000
C800        C  0.69703884  0.17540108  0.79811061    -0.15000
C801        C  0.71402683  0.15762721  0.84011998     0.35600
C802        C  0.68528085  0.12993490  0.86835967    -0.26400
C803        C  0.63945764  0.11931759  0.85579911    -0.15600
C804        C  0.62271427  0.13647689  0.81308579     0.36700
N805        N  0.57615744  0.12688018  0.79865804    -0.89900
H806        H  0.63744502  0.17928821  0.75387877     0.17800
H807        H  0.69884409  0.11677852  0.90061553     0.17800
N808        N  0.76039271  0.16841804  0.85429254    -0.88900
H809        H  0.57001938  0.14044355  0.76575033     0.35200
H810        H  0.55389693  0.14423192  0.82124660     0.40300
H811        H  0.78300398  0.15388309  0.83009308     0.39900
H812        H  0.76776257  0.15300104  0.88609258     0.34800
C813        C  0.67824825  0.10304834  0.66702821    -0.27000
C814        C  0.64889328  0.12296812  0.63401581    -0.15000
C815        C  0.64972183  0.17082069  0.62748227     0.35600
C816        C  0.67808225  0.19812023  0.65571883    -0.26400
C817        C  0.70601779  0.17903668  0.69087063    -0.15600
C818        C  0.70749715  0.13024566  0.69481117     0.36700
N819        N  0.73904694  0.10698106  0.72512344    -0.89900
H820        H  0.67880795  0.06591100  0.67092646     0.17800
H821        H  0.67696086  0.23486648  0.65063283     0.17800
N822        N  0.62066893  0.19170979  0.59308885    -0.88900
H823        H  0.71963395  0.09047093  0.75082729     0.35200
H824        H  0.76156379  0.13002369  0.74119966     0.40300
H825        H  0.63223864  0.18054039  0.56070411     0.39900
H826        H  0.62439010  0.22754868  0.59336070     0.34800
C827        C  0.35661031  0.16453479  0.71909620    -0.27000
C828        C  0.30917694  0.16881464  0.70910948    -0.15000
C829        C  0.29168142  0.14635410  0.66938910     0.35600
C830        C  0.32200201  0.12223721  0.64006568    -0.26400
C831        C  0.36960143  0.11887740  0.64934685    -0.15600
C832        C  0.38693945  0.14002513  0.68980763     0.36700
N833        N  0.43548636  0.13823556  0.70026577    -0.89900
H834        H  0.37077168  0.18306189  0.74826181     0.17800
H835        H  0.30786594  0.10572791  0.60966709     0.17800
N836        N  0.24347157  0.14772527  0.65727843    -0.88900
H837        H  0.44235759  0.15477269  0.73158782     0.35200
H838        H  0.45296184  0.15694009  0.67465941     0.40300
H839        H  0.22385725  0.16468861  0.68234268     0.39900
H840        H  0.23134675  0.11376433  0.65695993     0.34800
C841        C  0.30354987  0.12924067  0.80870165    -0.27000
C842        C  0.30396935  0.17737304  0.81555661    -0.15000
C843        C  0.33176036  0.19480362  0.85223924     0.35600
C844        C  0.35906508  0.16501576  0.87874249    -0.26400
C845        C  0.36060097  0.11805716  0.86959440    -0.15600
C846        C  0.33204258  0.09956218  0.83489266     0.36700
N847        N  0.33242140  0.05083222  0.82617388    -0.89900
H848        H  0.28175470  0.11481410  0.78201599     0.17800
H849        H  0.38042761  0.17910111  0.90604305     0.17800
N850        N  0.33413476  0.24280997  0.86261507    -0.88900
H851        H  0.30977080  0.04265963  0.79931639     0.35200
H852        H  0.31972978  0.03430849  0.85577671     0.40300
H853        H  0.36883402  0.25294702  0.86125171     0.39900
H854        H  0.32259803  0.24753425  0.89657289     0.34800
C855        C  0.69502898  0.86441394  0.63170453    -0.27000
C856        C  0.64773136  0.86991952  0.64219089    -0.15000
C857        C  0.63044994  0.84927590  0.68305033     0.35600
C858        C  0.65997930  0.82370718  0.71171434    -0.26400
C859        C  0.70733873  0.81844529  0.70168654    -0.15600
C860        C  0.72469729  0.83911265  0.66097725     0.36700
N861        N  0.77261803  0.83469224  0.64925592    -0.89900
H862        H  0.70930872  0.88010970  0.60078090     0.17800
H863        H  0.64500629  0.80679565  0.74142757     0.17800
N864        N  0.58258799  0.85321956  0.69543939    -0.88900
H865        H  0.78679161  0.86776325  0.64679002     0.35200
H866        H  0.77485717  0.81932767  0.61665933     0.40300
H867        H  0.58059457  0.86843991  0.72812965     0.39900
H868        H  0.56865952  0.82002974  0.69790603     0.34800
C869        C  0.67241245  0.79492608  0.84081697    -0.27000
C870        C  0.70447034  0.81390200  0.80901069    -0.15000
C871        C  0.70789874  0.86275462  0.80655756     0.35600
C872        C  0.67706611  0.89013174  0.83256805    -0.26400
C873        C  0.64384757  0.87015385  0.86202953    -0.15600
C874        C  0.64204051  0.82225892  0.86670773     0.36700
N875        N  0.60934472  0.80145593  0.89807757    -0.89900
H876        H  0.66904317  0.75820849  0.84480306     0.17800
H877        H  0.67974724  0.92733011  0.83052548     0.17800
N878        N  0.74328164  0.88585220  0.78025042    -0.88900
H879        H  0.61284809  0.76562464  0.89828041     0.35200
H880        H  0.57615546  0.80842347  0.88562032     0.40300
H881        H  0.76749066  0.86281854  0.76682345     0.39900
H882        H  0.72738152  0.90271724  0.75261494     0.34800
C883        C  0.32503791  0.79918172  0.84379870    -0.27000
C884        C  0.29319638  0.82157917  0.81458799    -0.15000
C885        C  0.29118550  0.87043305  0.81600406     0.35600
C886        C  0.32251163  0.89491121  0.84412732    -0.26400
C887        C  0.35563716  0.87197250  0.87114819    -0.15600
C888        C  0.35645235  0.82366640  0.87141589     0.36700
N889        N  0.38982792  0.79959662  0.89912801    -0.89900
H890        H  0.32648795  0.76215490  0.84457403     0.17800
H891        H  0.32096992  0.93221205  0.84487778     0.17800
N892        N  0.25714866  0.89626251  0.79087079    -0.88900
H893        H  0.38664182  0.76398082  0.89473341     0.35200
H894        H  0.38219038  0.80635985  0.93381220     0.40300
H895        H  0.23366376  0.87474033  0.77407786     0.39900
H896        H  0.27445935  0.91543630  0.76553840     0.34800
C897        C  0.31611720  0.87810954  0.64212331    -0.27000
C898        C  0.36400543  0.87609087  0.65057618    -0.15000
C899        C  0.37966479  0.85118173  0.68947207     0.35600
C900        C  0.34727604  0.82894048  0.71855403    -0.26400
C901        C  0.29949098  0.83006472  0.70931902    -0.15600
C902        C  0.28384849  0.85565816  0.67080924     0.36700
N903        N  0.23560473  0.85909810  0.65924008    -0.89900
H904        H  0.30333334  0.89739258  0.61274579     0.17800
H905        H  0.35973895  0.80797926  0.74682528     0.17800
N906        N  0.42836136  0.84681308  0.69831050    -0.88900
H907        H  0.22655134  0.89391552  0.66092583     0.35200
H908        H  0.21467790  0.84229227  0.68345891     0.40300
H909        H  0.44277485  0.82795219  0.67107268     0.39900
H910        H  0.43403233  0.82757198  0.72834427     0.34800
C911        C  0.38525302  0.65567122  0.83204425    -0.27000
C912        C  0.36254545  0.62238112  0.85907745    -0.15000
C913        C  0.31426228  0.61606990  0.85503172     0.35600
C914        C  0.28938164  0.64617976  0.82693509    -0.26400
C915        C  0.31210771  0.68017042  0.80122802    -0.15600
C916        C  0.36037222  0.68458921  0.80304624     0.36700
N917        N  0.38384521  0.72001612  0.77754933    -0.89900
H918        H  0.42234410  0.66051106  0.83461233     0.17800
H919        H  0.25220910  0.64296015  0.82483093     0.17800
N920        N  0.29045342  0.58049254  0.88037147    -0.88900
H921        H  0.40838922  0.70433222  0.75615090     0.35200
H922        H  0.40154456  0.74094511  0.80098660     0.40300
H923        H  0.30122826  0.54887317  0.86683132     0.39900
H924        H  0.25478293  0.58224934  0.87472749     0.34800
C925        C  0.34767448  0.61707036  0.66784696    -0.27000
C926        C  0.37937573  0.64034272  0.63924728    -0.15000
C927        C  0.38148127  0.68898896  0.64032841     0.35600
C928        C  0.35082756  0.71305055  0.66913674    -0.26400
C929        C  0.31934003  0.68960407  0.69755966    -0.15600
C930        C  0.31748550  0.64121366  0.69663014     0.36700
N931        N  0.28326703  0.61657261  0.72279888    -0.89900
H932        H  0.34522327  0.57981253  0.66689076     0.17800
H933        H  0.35154308  0.75025246  0.66940057     0.17800
N934        N  0.41310322  0.71391399  0.61103205    -0.88900
H935        H  0.30033387  0.59285520  0.74393324     0.35200
H936        H  0.26271635  0.59796114  0.69974475     0.40300
H937        H  0.44650747  0.70749650  0.62315457     0.39900
H938        H  0.40797898  0.74943090  0.61418914     0.34800
C939        C  0.59617564  0.66115354  0.81971158    -0.27000
C940        C  0.60967585  0.61678109  0.83315085    -0.15000
C941        C  0.64986137  0.59728574  0.81335378     0.35600
C942        C  0.67977193  0.62523626  0.78761339    -0.26400
C943        C  0.67038950  0.67206573  0.78224981    -0.15600
C944        C  0.62607186  0.68875202  0.79348457     0.36700
N945        N  0.61093774  0.73296129  0.77777238    -0.89900
H946        H  0.56370904  0.67550733  0.83172419     0.17800
H947        H  0.71183055  0.61103786  0.77435776     0.17800
N948        N  0.66139919  0.54986714  0.82072295    -0.88900
H949        H  0.59805440  0.75123537  0.80608383     0.35200
H950        H  0.58297546  0.72767832  0.75559241     0.40300
H951        H  0.69364653  0.54841400  0.83689473     0.39900
H952        H  0.66452123  0.53406262  0.78842148     0.34800
C953        C  0.64600210  0.70012922  0.67092048    -0.27000
C954        C  0.68930463  0.68283962  0.68283915    -0.15000
C955        C  0.70479693  0.64091670  0.66455749     0.35600
C956        C  0.67708548  0.61711292  0.63352823    -0.26400
C957        C  0.63348648  0.63410943  0.62144268    -0.15600
C958        C  0.61738625  0.67566513  0.64105960     0.36700
N959        N  0.57195468  0.69281850  0.63162125    -0.89900
H960        H  0.63393017  0.73219385  0.68565149     0.17800
H961        H  0.68982012  0.58506943  0.61915682     0.17800
N962        N  0.74822066  0.62191272  0.67791606    -0.88900
H963        H  0.57520306  0.72593719  0.61772822     0.35200
H964        H  0.55406697  0.69541743  0.66301742     0.40300
H965        H  0.76806533  0.61728662  0.64798282     0.39900
H966        H  0.74223437  0.58947462  0.69255707     0.34800
C967        C  0.60720462  0.32743228  0.85475195    -0.27000
C968        C  0.60482948  0.37473948  0.84585183    -0.15000
C969        C  0.62888185  0.39368275  0.80779703     0.35600
C970        C  0.65839925  0.36529759  0.78244031    -0.26400
C971        C  0.66347933  0.31828150  0.79337477    -0.15600
C972        C  0.63632607  0.29915862  0.82904512     0.36700
N973        N  0.63838821  0.25118367  0.83990583    -0.89900
H974        H  0.58839738  0.31253124  0.88364995     0.17800
H975        H  0.67898180  0.38089865  0.75528752     0.17800
N976        N  0.62477381  0.44122378  0.79425633    -0.88900
H977        H  0.60503602  0.23753622  0.83689202     0.35200
H978        H  0.64861857  0.24770516  0.87436391     0.40300
H979        H  0.59911463  0.45801183  0.81324289     0.39900
H980        H  0.61327078  0.44181702  0.76003399     0.34800
C981        C  0.60848140  0.34598882  0.65547871    -0.27000
C982        C  0.63288969  0.37725791  0.62737201    -0.15000
C983        C  0.68154517  0.37991378  0.63042522     0.35600
C984        C  0.70461824  0.35094872  0.66143563    -0.26400
C985        C  0.68014854  0.31987824  0.68938532    -0.15600
C986        C  0.63157953  0.31703431  0.68636004     0.36700
N987        N  0.60593273  0.28518183  0.71479045    -0.89900
H988        H  0.57112813  0.34389355  0.65316877     0.17800
H989        H  0.74191356  0.35275666  0.66400830     0.17800
N990        N  0.70747589  0.41113345  0.60163597    -0.88900
H991        H  0.57043676  0.28809357  0.70873820     0.35200
H992        H  0.61530827  0.25178461  0.70529474     0.40300
H993        H  0.70435441  0.39973625  0.56752480     0.39900
H994        H  0.74271549  0.40970056  0.60954846     0.34800
C995        C  0.29515537  0.35071698  0.83354414    -0.27000
C996        C  0.32113685  0.32390764  0.80285384    -0.15000
C997        C  0.36972223  0.32834054  0.80116150     0.35600
C998        C  0.39116398  0.35950048  0.83088128    -0.26400
C999        C  0.36517563  0.38485055  0.86292584    -0.15600
C1000       C  0.31650891  0.38120729  0.86351382     0.36700
N1001       N  0.28801194  0.40572418  0.89574603    -0.89900
H1002       H  0.25799094  0.34695043  0.83542122     0.17800
H1003       H  0.42856862  0.36232331  0.83067271     0.17800
N1004       N  0.39716874  0.29963209  0.77128231    -0.88900
H1005       H  0.29247899  0.44106545  0.89033685     0.35200
H1006       H  0.29817536  0.39719465  0.92931393     0.40300
H1007       H  0.39262419  0.26540765  0.78159104     0.39900
H1008       H  0.43238160  0.30712877  0.77475457     0.34800
C1009       C  0.38678869  0.32763549  0.63955663    -0.27000
C1010       C  0.38145482  0.37545268  0.64364220    -0.15000
C1011       C  0.35050894  0.39364261  0.67623773     0.35600
C1012       C  0.32495930  0.36361397  0.70396113    -0.26400
C1013       C  0.32934833  0.31565953  0.69914336    -0.15600
C1014       C  0.36063384  0.29765900  0.66669284     0.36700
N1015       N  0.36663181  0.24908079  0.66165473    -0.89900
H1016       H  0.41042611  0.31321457  0.61428108     0.17800
H1017       H  0.30133338  0.37812058  0.72885201     0.17800
N1018       N  0.34505581  0.44240577  0.68144989    -0.88900
H1019       H  0.40142100  0.24143794  0.66776407     0.35200
H1020       H  0.35916307  0.24025669  0.62746649     0.40300
H1021       H  0.35284428  0.45094290  0.71564986     0.39900
H1022       H  0.31030923  0.45045385  0.67566510     0.34800
loop_ 
_geom_bond_atom_site_label_1 
_geom_bond_atom_site_label_2 
_geom_bond_distance 
_geom_bond_site_symmetry_2 
_ccdc_geom_bond_type 
N1            N2   1.320       .  A
N1            N7   1.313       .  A
N1         Mn541   2.195   1_554  S
N2            C9   1.355       .  A
N3            N5   1.311       .  A
N3            N4   1.314       .  A
N3         Mn530   2.161       .  S
N4           C10   1.348       .  A
N5            N6   1.317       .  A
N5          Mn30   2.179       .  S
N6           C10   1.352       .  A
N7            N8   1.314       .  A
N7          Mn19   2.170   1_554  S
N8            C9   1.348       .  A
C9          C471   1.471       .  S
C10         C457   1.457       .  S
N11          N17   1.311       .  A
N11          N12   1.316       .  A
N11        Mn552   2.168       .  S
N12          C20   1.349       .  A
N13          N14   1.311       .  A
N13          N15   1.312       .  A
N13         Mn19   2.157   1_554  S
N14          C21   1.346       .  A
N15          N16   1.317       .  A
N15         Mn41   2.180       .  S
N16          C21   1.352       .  A
N17          N18   1.313       .  A
N17        Mn530   2.165       .  S
N18          C20   1.349       .  A
Mn19        N514   2.161       .  S
Mn19        N528   2.165       .  S
Mn19        Cl43   2.515       .  S
C20         C488   1.456       .  S
C21         C499   1.456       .  S
N22          N23   1.313       .  A
N22          N28   1.313       .  A
N22         Mn30   2.169       .  S
N23          C31   1.348       .  A
N24          N26   1.314       .  A
N24          N25   1.313       .  A
N24        Mn553   2.163   1_554  S
N25          C32   1.347       .  A
N26          N27   1.315       .  A
N26        Mn541   2.181   1_554  S
N27          C32   1.353       .  A
N28          N29   1.320       .  A
N28         Mn42   2.197       .  S
N29          C31   1.356       .  A
Mn30        N512   2.195       .  S
Mn30        N537   2.182       .  S
Mn30       Cl554   2.534       .  S
C31         C429   1.471       .  S
C32         C446   1.462       .  S
N33          N34   1.314       .  A
N33          N39   1.314       .  A
N33         Mn41   2.173       .  S
N34          C44   1.350       .  A
N35          N36   1.313       .  A
N35          N37   1.311       .  A
N35         Mn42   2.161       .  S
N36          C45   1.350       .  A
N37          N38   1.315       .  A
N37        Mn552   2.168       .  S
N38          C45   1.349       .  A
N39          N40   1.320       .  A
N39        Mn553   2.201   1_554  S
N40          C44   1.354       .  A
Mn41        N522   2.168   1_554  S
Mn41        N548   2.168   1_554  S
Mn41        Cl43   2.532   1_554  S
Mn42        N535   2.163       .  S
Mn42        N550   2.201       .  S
Mn42       Cl554   2.527       .  S
Cl43       Mn541   2.534       .  S
Cl43       Mn553   2.527       .  S
C44         C415   1.472       .  S
C45         C401   1.460       .  S
N46          N47   1.321       .  A
N46          N52   1.318       .  A
N46         Mn75   2.206       .  S
N47          C54   1.352       .  A
N48          N50   1.318       .  A
N48          N49   1.322       .  A
N48         Mn64   2.211   1_545  S
N49          C55   1.354       .  A
N50          N51   1.323       .  A
N50         Mn75   2.219   1_545  S
N51          C55   1.356       .  A
N52          N53   1.325       .  A
N52         Mn64   2.228       .  S
N53          C54   1.358       .  A
C54         C387   1.495       .  S
C55         C320   1.497       .  S
N56          N62   1.319       .  A
N56          N57   1.323       .  A
N56         Mn86   2.208   1_545  S
N57          C65   1.352       .  A
N58          N59   1.321       .  A
N58          N60   1.319       .  A
N58         Mn64   2.211       .  S
N59          C66   1.353       .  A
N60          N61   1.326       .  A
N60         Mn86   2.234       .  S
N61          C66   1.358       .  A
N62          N63   1.323       .  A
N62         Mn64   2.222   1_545  S
N63          C65   1.353       .  A
Mn64        Cl88   2.561       .  S
C65         C303   1.480       .  S
C66         C345   1.500       .  S
N67          N68   1.321       .  A
N67          N73   1.319       .  A
N67        Mn586   2.204   1_545  S
N68          C76   1.350       .  A
N69          N71   1.320       .  A
N69          N70   1.325       .  A
N69         Mn87   2.227       .  S
N70          C77   1.354       .  A
N71          N72   1.323       .  A
N71        Mn586   2.215       .  S
N72          C77   1.351       .  A
N73          N74   1.323       .  A
N73         Mn87   2.218   1_545  S
N74          C76   1.353       .  A
Mn75        N578   2.205   1_564  S
Mn75        N582   2.215   1_554  S
Mn75        Cl88   2.552       .  S
C76         C334   1.475       .  S
C77         C376   1.482       .  S
N78          N79   1.320       .  A
N78          N84   1.321       .  A
N78        Mn597   2.202       .  S
N79          C89   1.348       .  A
N80          N81   1.323       .  A
N80          N82   1.319       .  A
N80         Mn87   2.220   1_545  S
N81          C90   1.355       .  A
N82          N83   1.324       .  A
N82        Mn597   2.228   1_545  S
N83          C90   1.357       .  A
N84          N85   1.324       .  A
N84         Mn87   2.224       .  S
N85          C89   1.354       .  A
Mn86        N589   2.202   1_554  S
Mn86        N593   2.228   1_564  S
Mn86        Cl88   2.558       .  S
Mn87       Cl599   2.565       .  S
Cl88       Mn598   2.565   1_554  S
C89         C362   1.475       .  S
C90         C292   1.503       .  S
N91          N92   1.325       .  A
N91          N97   1.318       .  A
N91        Mn120   2.225   1_655  S
N92          C99   1.357       .  A
N93          N95   1.320       .  A
N93          N94   1.326       .  A
N93        Mn109   2.233       .  S
N94         C100   1.356       .  A
N95          N96   1.321       .  A
N95        Mn120   2.201       .  S
N96         C100   1.348       .  A
N97          N98   1.321       .  A
N97        Mn109   2.215   1_655  S
N98          C99   1.354       .  A
C99         C275   1.499       .  S
C100        C180   1.481       .  S
N101        N107   1.320       .  A
N101        N102   1.319       .  A
N101       Mn131   2.198       .  S
N102        C110   1.347       .  A
N103        N104   1.321       .  A
N103        N105   1.319       .  A
N103       Mn109   2.211   1_655  S
N104        C111   1.352       .  A
N105        N106   1.327       .  A
N105       Mn131   2.235   1_655  S
N106        C111   1.358       .  A
N107        N108   1.325       .  A
N107       Mn109   2.227       .  S
N108        C110   1.355       .  A
Mn109      Cl133   2.564       .  S
C110        C219   1.475       .  S
C111        C233   1.498       .  S
N112        N113   1.324       .  A
N112        N118   1.319       .  A
N112       Mn631   2.221       .  S
N113        C121   1.356       .  A
N114        N116   1.320       .  A
N114        N115   1.324       .  A
N114       Mn132   2.221   1_655  S
N115        C122   1.353       .  A
N116        N117   1.320       .  A
N116       Mn631   2.195   1_655  S
N117        C122   1.347       .  A
N118        N119   1.323       .  A
N118       Mn132   2.225       .  S
N119        C121   1.355       .  A
Mn120       N623   2.221   1_554  S
Mn120       N627   2.195   1_454  S
Mn120      Cl133   2.559       .  S
C121        C194   1.502       .  S
C122        C264   1.472       .  S
N123        N124   1.324       .  A
N123        N129   1.320       .  A
N123       Mn642   2.210   1_655  S
N124        C134   1.351       .  A
N125        N126   1.324       .  A
N125        N127   1.319       .  A
N125       Mn132   2.223       .  S
N126        C135   1.356       .  A
N127        N128   1.324       .  A
N127       Mn642   2.223       .  S
N128        C135   1.355       .  A
N129        N130   1.324       .  A
N129       Mn132   2.233   1_655  S
N130        C134   1.355       .  A
Mn131       N634   2.210   1_454  S
Mn131       N638   2.223   1_554  S
Mn131      Cl133   2.562       .  S
Mn132      Cl644   2.561       .  S
Cl133      Mn643   2.561   1_554  S
C134        C247   1.484       .  S
C135        C208   1.502       .  S
C136        H137   1.106       .  S
C136        C142   1.543       .  S
C136        C141   1.551       .  S
C136        C140   1.533       .  S
C138        H139   1.109       .  S
C138        C144   1.544       .  S
C138        C143   1.529       .  S
C138        C145   1.545       .  S
C140        C143   1.367       .  D
C140        C502   1.473       .  S
C141        C144   1.392       .  D
C141        C222   1.523       .  S
C142        C145   1.384       .  D
C142        C317   1.502       .  S
C143        C485   1.469       .  S
C144        C205   1.511       .  S
C145        C331   1.520       .  S
C146        H147   1.111       .  S
C146        C152   1.540       .  S
C146        C151   1.545       .  S
C146        C150   1.530       .  S
C148        H149   1.110       .  S
C148        C154   1.554       .  S
C148        C153   1.542       .  S
C148        C155   1.551       .  S
C150        C153   1.370       .  D
C150        C474   1.474       .  S
C151        C154   1.390       .  D
C151        C306   1.515       .  S
C152        C155   1.377       .  D
C152        C236   1.498       .  S
C153        C460   1.486       .  S
C154        C289   1.505       .  S
C155        C250   1.514       .  S
C156        H157   1.112       .  S
C156        C162   1.550       .  S
C156        C161   1.545       .  S
C156        C160   1.528       .  S
C158        H159   1.112       .  S
C158        C164   1.542       .  S
C158        C163   1.529       .  S
C158        C165   1.539       .  S
C160        C163   1.364       .  D
C160        C418   1.475       .  S
C161        C164   1.383       .  D
C161        C390   1.497       .  S
C162        C165   1.386       .  D
C162        C177   1.511       .  S
C163        C404   1.458       .  S
C164        C373   1.510       .  S
C165        C191   1.501       .  S
C166        H167   1.110       .  S
C166        C172   1.553       .  S
C166        C171   1.551       .  S
C166        C170   1.518       .  S
C168        H169   1.103       .  S
C168        C174   1.541       .  S
C168        C173   1.543       .  S
C168        C175   1.543       .  S
C170        C173   1.357       .  D
C170        C443   1.457       .  S
C171        C174   1.386       .  D
C171        C278   1.510       .  S
C172        C175   1.391       .  D
C172        C348   1.511       .  S
C173        C432   1.473       .  S
C174        C261   1.514       .  S
C175        C359   1.516       .  S
C176        C177   1.410       .  A
C176        C181   1.399       .  A
C176        H183   1.075       .  S
C177        C178   1.419       .  A
C178        C179   1.411       .  A
C178        N185   1.437       .  S
C179        C180   1.407       .  A
C179        H184   1.084       .  S
C180        C181   1.409       .  A
C181        N182   1.439       .  S
N182        H186   1.045       .  S
N182        H187   1.043       .  S
N185        H188   1.044       .  S
N185        H189   1.045       .  S
C190        C191   1.406       .  A
C190        C195   1.402       .  A
C190        H197   1.082       .  S
C191        C192   1.417       .  A
C192        C193   1.409       .  A
C192        N199   1.439       .  S
C193        C194   1.409       .  A
C193        H198   1.083       .  S
C194        C195   1.419       .  A
C195        N196   1.432       .  S
N196        H200   1.045       .  S
N196        H201   1.045       .  S
N199        H202   1.043       .  S
N199        H203   1.046       .  S
C204        C205   1.405       .  A
C204        C209   1.414       .  A
C204        H211   1.084       .  S
C205        C206   1.420       .  A
C206        C207   1.409       .  A
C206        N213   1.435       .  S
C207        C208   1.404       .  A
C207        H212   1.083       .  S
C208        C209   1.418       .  A
C209        N210   1.437       .  S
N210        H214   1.046       .  S
N210        H215   1.045       .  S
N213        H216   1.038       .  S
N213        H217   1.047       .  S
C218        C219   1.388       .  A
C218        C223   1.400       .  A
C218        H225   1.085       .  S
C219        C220   1.411       .  A
C220        C221   1.408       .  A
C220        N227   1.432       .  S
C221        C222   1.413       .  A
C221        H226   1.083       .  S
C222        C223   1.430       .  A
C223        N224   1.427       .  S
N224        H228   1.045       .  S
N224        H229   1.046       .  S
N227        H230   1.046       .  S
N227        H231   1.045       .  S
C232        C233   1.408       .  A
C232        C237   1.414       .  A
C232        H239   1.083       .  S
C233        C234   1.416       .  A
C234        C235   1.408       .  A
C234        N241   1.438       .  S
C235        C236   1.403       .  A
C235        H240   1.080       .  S
C236        C237   1.411       .  A
C237        N238   1.438       .  S
N238        H242   1.046       .  S
N238        H243   1.044       .  S
N241        H244   1.046       .  S
N241        H245   1.045       .  S
C246        C247   1.391       .  A
C246        C251   1.396       .  A
C246        H253   1.085       .  S
C247        C248   1.414       .  A
C248        C249   1.420       .  A
C248        N255   1.437       .  S
C249        C250   1.408       .  A
C249        H254   1.083       .  S
C250        C251   1.423       .  A
C251        N252   1.421       .  S
N252        H256   1.043       .  S
N252        H257   1.041       .  S
N255        H258   1.045       .  S
N255        H259   1.046       .  S
C260        C261   1.410       .  A
C260        C265   1.410       .  A
C260        H267   1.084       .  S
C261        C262   1.423       .  A
C262        C263   1.398       .  A
C262        N269   1.427       .  S
C263        C264   1.388       .  A
C263        H268   1.085       .  S
C264        C265   1.417       .  A
C265        N266   1.438       .  S
N266        H270   1.045       .  S
N266        H271   1.044       .  S
N269        H272   1.045       .  S
N269        H273   1.046       .  S
C274        C275   1.408       .  A
C274        C279   1.414       .  A
C274        H281   1.083       .  S
C275        C276   1.415       .  A
C276        C277   1.408       .  A
C276        N283   1.438       .  S
C277        C278   1.408       .  A
C277        H282   1.081       .  S
C278        C279   1.412       .  A
C279        N280   1.436       .  S
N280        H284   1.046       .  S
N280        H285   1.045       .  S
N283        H286   1.046       .  S
N283        H287   1.046       .  S
C288        C289   1.407       .  A
C288        C293   1.412       .  A
C288        H295   1.082       .  S
C289        C290   1.410       .  A
C290        C291   1.412       .  A
C290        N297   1.437       .  S
C291        C292   1.409       .  A
C291        H296   1.083       .  S
C292        C293   1.419       .  A
C293        N294   1.438       .  S
N294        H298   1.046       .  S
N294        H299   1.046       .  S
N297        H300   1.046       .  S
N297        H301   1.045       .  S
C302        C303   1.405       .  A
C302        C307   1.411       .  A
C302        H309   1.084       .  S
C303        C304   1.402       .  A
C304        C305   1.405       .  A
C304        N311   1.439       .  S
C305        C306   1.414       .  A
C305        H310   1.077       .  S
C306        C307   1.421       .  A
C307        N308   1.436       .  S
N308        H312   1.045       .  S
N308        H313   1.044       .  S
N311        H314   1.046       .  S
N311        H315   1.046       .  S
C316        C317   1.408       .  A
C316        C321   1.411       .  A
C316        H323   1.083       .  S
C317        C318   1.417       .  A
C318        C319   1.406       .  A
C318        N325   1.439       .  S
C319        C320   1.406       .  A
C319        H324   1.083       .  S
C320        C321   1.416       .  A
C321        N322   1.438       .  S
N322        H326   1.046       .  S
N322        H327   1.046       .  S
N325        H328   1.043       .  S
N325        H329   1.046       .  S
C330        C331   1.411       .  A
C330        C335   1.414       .  A
C330        H337   1.083       .  S
C331        C332   1.427       .  A
C332        C333   1.401       .  A
C332        N339   1.427       .  S
C333        C334   1.390       .  A
C333        H338   1.085       .  S
C334        C335   1.409       .  A
C335        N336   1.437       .  S
N336        H340   1.045       .  S
N336        H341   1.046       .  S
N339        H342   1.045       .  S
N339        H343   1.046       .  S
C344        C345   1.409       .  A
C344        C349   1.413       .  A
C344        H351   1.083       .  S
C345        C346   1.413       .  A
C346        C347   1.405       .  A
C346        N353   1.433       .  S
C347        C348   1.407       .  A
C347        H352   1.078       .  S
C348        C349   1.411       .  A
C349        N350   1.431       .  S
N350        H354   1.045       .  S
N350        H355   1.046       .  S
N353        H356   1.046       .  S
N353        H357   1.046       .  S
C358        C359   1.414       .  A
C358        C363   1.400       .  A
C358        H365   1.076       .  S
C359        C360   1.423       .  A
C360        C361   1.411       .  A
C360        N367   1.437       .  S
C361        C362   1.405       .  A
C361        H366   1.084       .  S
C362        C363   1.397       .  A
C363        N364   1.439       .  S
N364        H368   1.045       .  S
N364        H369   1.046       .  S
N367        H370   1.043       .  S
N367        H371   1.045       .  S
C372        C373   1.411       .  A
C372        C377   1.405       .  A
C372        H379   1.076       .  S
C373        C374   1.420       .  A
C374        C375   1.412       .  A
C374        N381   1.437       .  S
C375        C376   1.406       .  A
C375        H380   1.084       .  S
C376        C377   1.402       .  A
C377        N378   1.438       .  S
N378        H382   1.046       .  S
N378        H383   1.046       .  S
N381        H384   1.044       .  S
N381        H385   1.045       .  S
C386        C387   1.408       .  A
C386        C391   1.405       .  A
C386        H393   1.083       .  S
C387        C388   1.413       .  A
C388        C389   1.411       .  A
C388        N395   1.437       .  S
C389        C390   1.408       .  A
C389        H394   1.082       .  S
C390        C391   1.414       .  A
C391        N392   1.439       .  S
N392        H396   1.045       .  S
N392        H397   1.044       .  S
N395        H398   1.046       .  S
N395        H399   1.046       .  S
C400        C401   1.403       .  A
C400        C405   1.389       .  A
C400        H407   1.084       .  S
C401        C402   1.413       .  A
C402        C403   1.395       .  A
C402        N409   1.438       .  S
C403        C404   1.396       .  A
C403        H408   1.080       .  S
C404        C405   1.402       .  A
C405        N406   1.433       .  S
N406        H410   1.045       .  S
N406        H411   1.046       .  S
N409        H412   1.046       .  S
N409        H413   1.046       .  S
C414        C415   1.404       .  A
C414        C419   1.394       .  A
C414        H421   1.084       .  S
C415        C416   1.414       .  A
C416        C417   1.402       .  A
C416        N423   1.438       .  S
C417        C418   1.399       .  A
C417        H422   1.080       .  S
C418        C419   1.406       .  A
C419        N420   1.433       .  S
N420        H424   1.046       .  S
N420        H425   1.045       .  S
N423        H426   1.046       .  S
N423        H427   1.046       .  S
C428        C429   1.401       .  A
C428        C433   1.398       .  A
C428        H435   1.084       .  S
C429        C430   1.413       .  A
C430        C431   1.397       .  A
C430        N437   1.432       .  S
C431        C432   1.395       .  A
C431        H436   1.084       .  S
C432        C433   1.407       .  A
C433        N434   1.430       .  S
N434        H438   1.044       .  S
N434        H439   1.045       .  S
N437        H440   1.046       .  S
N437        H441   1.045       .  S
C442        C443   1.394       .  A
C442        C447   1.393       .  A
C442        H449   1.082       .  S
C443        C444   1.401       .  A
C444        C445   1.390       .  A
C444        N451   1.426       .  S
C445        C446   1.400       .  A
C445        H450   1.084       .  S
C446        C447   1.413       .  A
C447        N448   1.432       .  S
N448        H452   1.045       .  S
N448        H453   1.046       .  S
N451        H454   1.046       .  S
N451        H455   1.046       .  S
C456        C457   1.398       .  A
C456        C461   1.391       .  A
C456        H463   1.084       .  S
C457        C458   1.410       .  A
C458        C459   1.394       .  A
C458        N465   1.439       .  S
C459        C460   1.408       .  A
C459        H464   1.082       .  S
C460        C461   1.407       .  A
C461        N462   1.428       .  S
N462        H466   1.046       .  S
N462        H467   1.046       .  S
N465        H468   1.043       .  S
N465        H469   1.046       .  S
C470        C471   1.405       .  A
C470        C475   1.398       .  A
C470        H477   1.084       .  S
C471        C472   1.411       .  A
C472        C473   1.400       .  A
C472        N479   1.438       .  S
C473        C474   1.399       .  A
C473        H478   1.082       .  S
C474        C475   1.409       .  A
C475        N476   1.439       .  S
N476        H480   1.045       .  S
N476        H481   1.044       .  S
N479        H482   1.046       .  S
N479        H483   1.046       .  S
C484        C485   1.399       .  A
C484        C489   1.386       .  A
C484        H491   1.081       .  S
C485        C486   1.411       .  A
C486        C487   1.395       .  A
C486        N493   1.439       .  S
C487        C488   1.401       .  A
C487        H492   1.084       .  S
C488        C489   1.411       .  A
C489        N490   1.433       .  S
N490        H494   1.045       .  S
N490        H495   1.045       .  S
N493        H496   1.045       .  S
N493        H497   1.046       .  S
C498        C499   1.402       .  A
C498        C503   1.391       .  A
C498        H505   1.084       .  S
C499        C500   1.402       .  A
C500        C501   1.392       .  A
C500        N507   1.433       .  S
C501        C502   1.405       .  A
C501        H506   1.077       .  S
C502        C503   1.403       .  A
C503        N504   1.429       .  S
N504        H508   1.046       .  S
N504        H509   1.045       .  S
N507        H510   1.046       .  S
N507        H511   1.046       .  S
N512        N513   1.320       .  A
N512        N518   1.313       .  A
N513        C520   1.355       .  A
N514        N516   1.311       .  A
N514        N515   1.314       .  A
N515        C521   1.348       .  A
N516        N517   1.317       .  A
N516       Mn541   2.179       .  S
N517        C521   1.352       .  A
N518        N519   1.314       .  A
N518       Mn530   2.170       .  S
N519        C520   1.349       .  A
C520        C982   1.471       .  S
C521        C968   1.457       .  S
N522        N528   1.311       .  A
N522        N523   1.316       .  A
N523        C531   1.349       .  A
N524        N525   1.311       .  A
N524        N526   1.312       .  A
N524       Mn530   2.157       .  S
N525        C532   1.346       .  A
N526        N527   1.317       .  A
N526       Mn552   2.180       .  S
N527        C532   1.352       .  A
N528        N529   1.313       .  A
N529        C531   1.349       .  A
Mn530      Cl554   2.515       .  S
C531        C999   1.456       .  S
C532       C1010   1.456       .  S
N533        N534   1.313       .  A
N533        N539   1.313       .  A
N533       Mn541   2.169       .  S
N534        C542   1.348       .  A
N535        N537   1.314       .  A
N535        N536   1.313       .  A
N536        C543   1.347       .  A
N537        N538   1.315       .  A
N538        C543   1.353       .  A
N539        N540   1.320       .  A
N539       Mn553   2.197       .  S
N540        C542   1.356       .  A
C542        C940   1.471       .  S
C543        C957   1.462       .  S
N544        N545   1.314       .  A
N544        N550   1.314       .  A
N544       Mn552   2.173       .  S
N545        C555   1.350       .  A
N546        N547   1.313       .  A
N546        N548   1.311       .  A
N546       Mn553   2.161       .  S
N547        C556   1.350       .  A
N548        N549   1.315       .  A
N549        C556   1.349       .  A
N550        N551   1.320       .  A
N551        C555   1.354       .  A
Mn552      Cl554   2.532       .  S
C555        C926   1.472       .  S
C556        C912   1.460       .  S
N557        N558   1.321       .  A
N557        N563   1.318       .  A
N557       Mn586   2.206       .  S
N558        C565   1.352       .  A
N559        N561   1.318       .  A
N559        N560   1.322       .  A
N559       Mn575   2.211   1_545  S
N560        C566   1.354       .  A
N561        N562   1.323       .  A
N561       Mn586   2.219   1_545  S
N562        C566   1.356       .  A
N563        N564   1.325       .  A
N563       Mn575   2.228       .  S
N564        C565   1.358       .  A
C565        C898   1.495       .  S
C566        C831   1.497       .  S
N567        N573   1.319       .  A
N567        N568   1.323       .  A
N567       Mn597   2.208   1_545  S
N568        C576   1.352       .  A
N569        N570   1.321       .  A
N569        N571   1.319       .  A
N569       Mn575   2.211       .  S
N570        C577   1.353       .  A
N571        N572   1.326       .  A
N571       Mn597   2.234       .  S
N572        C577   1.358       .  A
N573        N574   1.323       .  A
N573       Mn575   2.222   1_545  S
N574        C576   1.353       .  A
Mn575      Cl599   2.561       .  S
C576        C814   1.480       .  S
C577        C856   1.500       .  S
N578        N579   1.321       .  A
N578        N584   1.319       .  A
N579        C587   1.350       .  A
N580        N582   1.320       .  A
N580        N581   1.325       .  A
N580       Mn598   2.227       .  S
N581        C588   1.354       .  A
N582        N583   1.323       .  A
N583        C588   1.351       .  A
N584        N585   1.323       .  A
N584       Mn598   2.218   1_545  S
N585        C587   1.353       .  A
Mn586      Cl599   2.552       .  S
C587        C845   1.475       .  S
C588        C887   1.482       .  S
N589        N590   1.320       .  A
N589        N595   1.321       .  A
N590        C600   1.348       .  A
N591        N592   1.323       .  A
N591        N593   1.319       .  A
N591       Mn598   2.220   1_545  S
N592        C601   1.355       .  A
N593        N594   1.324       .  A
N594        C601   1.357       .  A
N595        N596   1.324       .  A
N595       Mn598   2.224       .  S
N596        C600   1.354       .  A
Mn597      Cl599   2.558       .  S
C600        C873   1.475       .  S
C601        C803   1.503       .  S
N602        N603   1.325       .  A
N602        N608   1.318       .  A
N602       Mn631   2.225   1_655  S
N603        C610   1.357       .  A
N604        N606   1.320       .  A
N604        N605   1.326       .  A
N604       Mn620   2.233       .  S
N605        C611   1.356       .  A
N606        N607   1.321       .  A
N606       Mn631   2.201       .  S
N607        C611   1.348       .  A
N608        N609   1.321       .  A
N608       Mn620   2.215   1_655  S
N609        C610   1.354       .  A
C610        C786   1.499       .  S
C611        C691   1.481       .  S
N612        N618   1.320       .  A
N612        N613   1.319       .  A
N612       Mn642   2.198       .  S
N613        C621   1.347       .  A
N614        N615   1.321       .  A
N614        N616   1.319       .  A
N614       Mn620   2.211   1_655  S
N615        C622   1.352       .  A
N616        N617   1.327       .  A
N616       Mn642   2.235   1_655  S
N617        C622   1.358       .  A
N618        N619   1.325       .  A
N618       Mn620   2.227       .  S
N619        C621   1.355       .  A
Mn620      Cl644   2.564       .  S
C621        C730   1.475       .  S
C622        C744   1.498       .  S
N623        N624   1.324       .  A
N623        N629   1.319       .  A
N624        C632   1.356       .  A
N625        N627   1.320       .  A
N625        N626   1.324       .  A
N625       Mn643   2.221   1_655  S
N626        C633   1.353       .  A
N627        N628   1.320       .  A
N628        C633   1.347       .  A
N629        N630   1.323       .  A
N629       Mn643   2.225       .  S
N630        C632   1.355       .  A
Mn631      Cl644   2.559       .  S
C632        C705   1.502       .  S
C633        C775   1.472       .  S
N634        N635   1.324       .  A
N634        N640   1.320       .  A
N635        C645   1.351       .  A
N636        N637   1.324       .  A
N636        N638   1.319       .  A
N636       Mn643   2.223       .  S
N637        C646   1.356       .  A
N638        N639   1.324       .  A
N639        C646   1.355       .  A
N640        N641   1.324       .  A
N640       Mn643   2.233   1_655  S
N641        C645   1.355       .  A
Mn642      Cl644   2.562       .  S
C645        C758   1.484       .  S
C646        C719   1.502       .  S
C647        H648   1.106       .  S
C647        C653   1.543       .  S
C647        C652   1.551       .  S
C647        C651   1.533       .  S
C649        H650   1.109       .  S
C649        C655   1.544       .  S
C649        C654   1.529       .  S
C649        C656   1.545       .  S
C651        C654   1.367       .  D
C651       C1013   1.473       .  S
C652        C655   1.392       .  D
C652        C733   1.523       .  S
C653        C656   1.384       .  D
C653        C828   1.502       .  S
C654        C996   1.469       .  S
C655        C716   1.511       .  S
C656        C842   1.520       .  S
C657        H658   1.111       .  S
C657        C663   1.540       .  S
C657        C662   1.545       .  S
C657        C661   1.530       .  S
C659        H660   1.110       .  S
C659        C665   1.554       .  S
C659        C664   1.542       .  S
C659        C666   1.551       .  S
C661        C664   1.370       .  D
C661        C985   1.474       .  S
C662        C665   1.390       .  D
C662        C817   1.515       .  S
C663        C666   1.377       .  D
C663        C747   1.498       .  S
C664        C971   1.486       .  S
C665        C800   1.505       .  S
C666        C761   1.514       .  S
C667        H668   1.112       .  S
C667        C673   1.550       .  S
C667        C672   1.545       .  S
C667        C671   1.528       .  S
C669        H670   1.112       .  S
C669        C675   1.542       .  S
C669        C674   1.529       .  S
C669        C676   1.539       .  S
C671        C674   1.364       .  D
C671        C929   1.475       .  S
C672        C675   1.383       .  D
C672        C901   1.497       .  S
C673        C676   1.386       .  D
C673        C688   1.511       .  S
C674        C915   1.458       .  S
C675        C884   1.510       .  S
C676        C702   1.501       .  S
C677        H678   1.110       .  S
C677        C683   1.553       .  S
C677        C682   1.551       .  S
C677        C681   1.518       .  S
C679        H680   1.103       .  S
C679        C685   1.541       .  S
C679        C684   1.543       .  S
C679        C686   1.543       .  S
C681        C684   1.357       .  D
C681        C954   1.457       .  S
C682        C685   1.386       .  D
C682        C789   1.510       .  S
C683        C686   1.391       .  D
C683        C859   1.511       .  S
C684        C943   1.473       .  S
C685        C772   1.514       .  S
C686        C870   1.516       .  S
C687        C688   1.410       .  A
C687        C692   1.399       .  A
C687        H694   1.075       .  S
C688        C689   1.419       .  A
C689        C690   1.411       .  A
C689        N696   1.437       .  S
C690        C691   1.407       .  A
C690        H695   1.084       .  S
C691        C692   1.409       .  A
C692        N693   1.439       .  S
N693        H697   1.046       .  S
N693        H698   1.043       .  S
N696        H699   1.044       .  S
N696        H700   1.045       .  S
C701        C702   1.406       .  A
C701        C706   1.402       .  A
C701        H708   1.082       .  S
C702        C703   1.417       .  A
C703        C704   1.409       .  A
C703        N710   1.439       .  S
C704        C705   1.409       .  A
C704        H709   1.083       .  S
C705        C706   1.419       .  A
C706        N707   1.432       .  S
N707        H711   1.045       .  S
N707        H712   1.045       .  S
N710        H713   1.043       .  S
N710        H714   1.046       .  S
C715        C716   1.405       .  A
C715        C720   1.414       .  A
C715        H722   1.084       .  S
C716        C717   1.420       .  A
C717        C718   1.409       .  A
C717        N724   1.435       .  S
C718        C719   1.404       .  A
C718        H723   1.083       .  S
C719        C720   1.418       .  A
C720        N721   1.437       .  S
N721        H725   1.046       .  S
N721        H726   1.045       .  S
N724        H727   1.038       .  S
N724        H728   1.047       .  S
C729        C730   1.388       .  A
C729        C734   1.400       .  A
C729        H736   1.085       .  S
C730        C731   1.411       .  A
C731        C732   1.408       .  A
C731        N738   1.432       .  S
C732        C733   1.413       .  A
C732        H737   1.083       .  S
C733        C734   1.430       .  A
C734        N735   1.427       .  S
N735        H739   1.045       .  S
N735        H740   1.046       .  S
N738        H741   1.046       .  S
N738        H742   1.045       .  S
C743        C744   1.408       .  A
C743        C748   1.414       .  A
C743        H750   1.083       .  S
C744        C745   1.416       .  A
C745        C746   1.408       .  A
C745        N752   1.438       .  S
C746        C747   1.403       .  A
C746        H751   1.080       .  S
C747        C748   1.411       .  A
C748        N749   1.438       .  S
N749        H753   1.046       .  S
N749        H754   1.044       .  S
N752        H755   1.046       .  S
N752        H756   1.045       .  S
C757        C758   1.391       .  A
C757        C762   1.396       .  A
C757        H764   1.085       .  S
C758        C759   1.414       .  A
C759        C760   1.420       .  A
C759        N766   1.437       .  S
C760        C761   1.408       .  A
C760        H765   1.083       .  S
C761        C762   1.423       .  A
C762        N763   1.421       .  S
N763        H767   1.043       .  S
N763        H768   1.041       .  S
N766        H769   1.045       .  S
N766        H770   1.046       .  S
C771        C772   1.410       .  A
C771        C776   1.410       .  A
C771        H778   1.084       .  S
C772        C773   1.423       .  A
C773        C774   1.398       .  A
C773        N780   1.427       .  S
C774        C775   1.388       .  A
C774        H779   1.085       .  S
C775        C776   1.417       .  A
C776        N777   1.438       .  S
N777        H781   1.045       .  S
N777        H782   1.044       .  S
N780        H783   1.045       .  S
N780        H784   1.046       .  S
C785        C786   1.408       .  A
C785        C790   1.414       .  A
C785        H792   1.083       .  S
C786        C787   1.415       .  A
C787        C788   1.408       .  A
C787        N794   1.438       .  S
C788        C789   1.408       .  A
C788        H793   1.081       .  S
C789        C790   1.412       .  A
C790        N791   1.436       .  S
N791        H795   1.046       .  S
N791        H796   1.045       .  S
N794        H797   1.046       .  S
N794        H798   1.046       .  S
C799        C800   1.407       .  A
C799        C804   1.412       .  A
C799        H806   1.082       .  S
C800        C801   1.410       .  A
C801        C802   1.412       .  A
C801        N808   1.437       .  S
C802        C803   1.409       .  A
C802        H807   1.083       .  S
C803        C804   1.419       .  A
C804        N805   1.438       .  S
N805        H809   1.046       .  S
N805        H810   1.046       .  S
N808        H811   1.046       .  S
N808        H812   1.045       .  S
C813        C814   1.405       .  A
C813        C818   1.411       .  A
C813        H820   1.084       .  S
C814        C815   1.402       .  A
C815        C816   1.405       .  A
C815        N822   1.439       .  S
C816        C817   1.414       .  A
C816        H821   1.077       .  S
C817        C818   1.421       .  A
C818        N819   1.436       .  S
N819        H823   1.045       .  S
N819        H824   1.044       .  S
N822        H825   1.046       .  S
N822        H826   1.046       .  S
C827        C828   1.408       .  A
C827        C832   1.411       .  A
C827        H834   1.083       .  S
C828        C829   1.417       .  A
C829        C830   1.406       .  A
C829        N836   1.439       .  S
C830        C831   1.406       .  A
C830        H835   1.083       .  S
C831        C832   1.416       .  A
C832        N833   1.438       .  S
N833        H837   1.046       .  S
N833        H838   1.046       .  S
N836        H839   1.043       .  S
N836        H840   1.046       .  S
C841        C842   1.411       .  A
C841        C846   1.414       .  A
C841        H848   1.083       .  S
C842        C843   1.427       .  A
C843        C844   1.401       .  A
C843        N850   1.427       .  S
C844        C845   1.390       .  A
C844        H849   1.085       .  S
C845        C846   1.409       .  A
C846        N847   1.437       .  S
N847        H851   1.045       .  S
N847        H852   1.046       .  S
N850        H853   1.045       .  S
N850        H854   1.046       .  S
C855        C856   1.409       .  A
C855        C860   1.413       .  A
C855        H862   1.083       .  S
C856        C857   1.413       .  A
C857        C858   1.405       .  A
C857        N864   1.433       .  S
C858        C859   1.407       .  A
C858        H863   1.078       .  S
C859        C860   1.411       .  A
C860        N861   1.431       .  S
N861        H865   1.045       .  S
N861        H866   1.046       .  S
N864        H867   1.046       .  S
N864        H868   1.046       .  S
C869        C870   1.414       .  A
C869        C874   1.400       .  A
C869        H876   1.076       .  S
C870        C871   1.423       .  A
C871        C872   1.411       .  A
C871        N878   1.437       .  S
C872        C873   1.405       .  A
C872        H877   1.084       .  S
C873        C874   1.397       .  A
C874        N875   1.439       .  S
N875        H879   1.045       .  S
N875        H880   1.046       .  S
N878        H881   1.043       .  S
N878        H882   1.045       .  S
C883        C884   1.411       .  A
C883        C888   1.405       .  A
C883        H890   1.076       .  S
C884        C885   1.420       .  A
C885        C886   1.412       .  A
C885        N892   1.437       .  S
C886        C887   1.406       .  A
C886        H891   1.084       .  S
C887        C888   1.402       .  A
C888        N889   1.438       .  S
N889        H893   1.046       .  S
N889        H894   1.046       .  S
N892        H895   1.044       .  S
N892        H896   1.045       .  S
C897        C898   1.408       .  A
C897        C902   1.405       .  A
C897        H904   1.083       .  S
C898        C899   1.413       .  A
C899        C900   1.411       .  A
C899        N906   1.437       .  S
C900        C901   1.408       .  A
C900        H905   1.082       .  S
C901        C902   1.414       .  A
C902        N903   1.439       .  S
N903        H907   1.045       .  S
N903        H908   1.044       .  S
N906        H909   1.046       .  S
N906        H910   1.046       .  S
C911        C912   1.403       .  A
C911        C916   1.389       .  A
C911        H918   1.084       .  S
C912        C913   1.413       .  A
C913        C914   1.395       .  A
C913        N920   1.438       .  S
C914        C915   1.396       .  A
C914        H919   1.080       .  S
C915        C916   1.402       .  A
C916        N917   1.433       .  S
N917        H921   1.045       .  S
N917        H922   1.046       .  S
N920        H923   1.046       .  S
N920        H924   1.046       .  S
C925        C926   1.404       .  A
C925        C930   1.394       .  A
C925        H932   1.084       .  S
C926        C927   1.414       .  A
C927        C928   1.402       .  A
C927        N934   1.438       .  S
C928        C929   1.399       .  A
C928        H933   1.080       .  S
C929        C930   1.406       .  A
C930        N931   1.433       .  S
N931        H935   1.046       .  S
N931        H936   1.045       .  S
N934        H937   1.046       .  S
N934        H938   1.046       .  S
C939        C940   1.401       .  A
C939        C944   1.398       .  A
C939        H946   1.084       .  S
C940        C941   1.413       .  A
C941        C942   1.397       .  A
C941        N948   1.432       .  S
C942        C943   1.395       .  A
C942        H947   1.084       .  S
C943        C944   1.407       .  A
C944        N945   1.430       .  S
N945        H949   1.044       .  S
N945        H950   1.045       .  S
N948        H951   1.046       .  S
N948        H952   1.045       .  S
C953        C954   1.394       .  A
C953        C958   1.393       .  A
C953        H960   1.082       .  S
C954        C955   1.401       .  A
C955        C956   1.390       .  A
C955        N962   1.426       .  S
C956        C957   1.400       .  A
C956        H961   1.084       .  S
C957        C958   1.413       .  A
C958        N959   1.432       .  S
N959        H963   1.045       .  S
N959        H964   1.046       .  S
N962        H965   1.046       .  S
N962        H966   1.046       .  S
C967        C968   1.398       .  A
C967        C972   1.391       .  A
C967        H974   1.084       .  S
C968        C969   1.410       .  A
C969        C970   1.394       .  A
C969        N976   1.439       .  S
C970        C971   1.408       .  A
C970        H975   1.082       .  S
C971        C972   1.407       .  A
C972        N973   1.428       .  S
N973        H977   1.046       .  S
N973        H978   1.046       .  S
N976        H979   1.043       .  S
N976        H980   1.046       .  S
C981        C982   1.405       .  A
C981        C986   1.398       .  A
C981        H988   1.084       .  S
C982        C983   1.411       .  A
C983        C984   1.400       .  A
C983        N990   1.438       .  S
C984        C985   1.399       .  A
C984        H989   1.082       .  S
C985        C986   1.409       .  A
C986        N987   1.439       .  S
N987        H991   1.045       .  S
N987        H992   1.044       .  S
N990        H993   1.046       .  S
N990        H994   1.046       .  S
C995        C996   1.399       .  A
C995       C1000   1.386       .  A
C995       H1002   1.081       .  S
C996        C997   1.411       .  A
C997        C998   1.395       .  A
C997       N1004   1.439       .  S
C998        C999   1.401       .  A
C998       H1003   1.084       .  S
C999       C1000   1.411       .  A
C1000      N1001   1.433       .  S
N1001      H1005   1.045       .  S
N1001      H1006   1.045       .  S
N1004      H1007   1.045       .  S
N1004      H1008   1.046       .  S
C1009      C1010   1.402       .  A
C1009      C1014   1.391       .  A
C1009      H1016   1.084       .  S
C1010      C1011   1.402       .  A
C1011      C1012   1.392       .  A
C1011      N1018   1.433       .  S
C1012      C1013   1.405       .  A
C1012      H1017   1.077       .  S
C1013      C1014   1.403       .  A
C1014      N1015   1.429       .  S
N1015      H1019   1.046       .  S
N1015      H1020   1.045       .  S
N1018      H1021   1.046       .  S
N1018      H1022   1.046       .  S
