geometry optimzed in LAMMPS
_audit_creation_date              2020-11-30 
_audit_creation_method            'lammps2cif' 
_symmetry_space_group_name_H-M    'P1' 
_symmetry_Int_Tables_number       1 
_symmetry_cell_setting            triclinic 
loop_ 
_symmetry_equiv_pos_as_xyz 
  x,y,z 
_cell_length_a                    34.50260872 
_cell_length_b                    27.144847549525444 
_cell_length_c                    37.12930824316569 
_cell_angle_alpha                 90.14673441201184 
_cell_angle_beta                  90.48616181842844 
_cell_angle_gamma                 89.10509436092323 
loop_ 
_atom_site_label 
_atom_site_type_symbol 
_atom_site_fract_x 
_atom_site_fract_y 
_atom_site_fract_z 
_atom_site_charge 
O1          O  0.21933535  0.55428474  0.02936450    -0.73600
O2          O  0.21536834  0.45425463  0.45626922    -0.73700
O3          O  0.21586023  0.45398143  0.02963550    -0.73700
O4          O  0.21913819  0.55376151  0.45635883    -0.73800
O5          O  0.28363245  0.54744760  0.45612810    -0.73700
O6          O  0.28042877  0.45025048  0.03008996    -0.73700
O7          O  0.27983630  0.44839715  0.45709884    -0.73600
O8          O  0.28385452  0.54951646  0.02915461    -0.73700
Ni9        Ni  0.21507620  0.50420569  0.99296275     1.25400
Ni10       Ni  0.28416846  0.49871955  0.49316718     1.25400
C11         C  0.25230884  0.56850081  0.04129471     0.88600
C12         C  0.24698544  0.43532285  0.44420903     0.88500
C13         C  0.24784059  0.43602519  0.04217785     0.88500
C14         C  0.25203136  0.56643284  0.44382100     0.88700
O15         O  0.03027312  0.94996427  0.04406899    -0.73600
O16         O  0.02751745  0.04825477  0.47017233    -0.73700
O17         O  0.02799925  0.04910173  0.04344039    -0.73700
O18         O  0.03026387  0.94888130  0.47116535    -0.73800
O19         O  0.46574903  0.94687488  0.47057361    -0.73700
O20         O  0.46342809  0.04892532  0.04309685    -0.73700
O21         O  0.46290405  0.04763222  0.46975888    -0.73600
O22         O  0.46568323  0.94954232  0.04390910    -0.73700
Ni23       Ni  0.03123051  0.99916743  0.00715844     1.25400
Ni24       Ni  0.46208389  0.99818821  0.00671751     1.25400
C25         C  0.49830966  0.93436507  0.05674741     0.88600
C26         C  0.49488065  0.06399622  0.45764025     0.88500
C27         C  0.49557867  0.06476916  0.05592712     0.88500
C28         C  0.49864825  0.93115807  0.45886368     0.88700
C29         C  0.45713595  0.26628952  0.25761125     0.30800
C30         C  0.03715963  0.26394490  0.25855229     0.30800
C31         C  0.47715316  0.31773595  0.25756983    -0.05400
C32         C  0.47662420  0.24221036  0.29092819    -0.06200
C33         C  0.47725070  0.23936972  0.22634957    -0.06000
C34         C  0.01797913  0.31575813  0.25829243    -0.05400
C35         C  0.01707649  0.24102422  0.29142216    -0.06200
C36         C  0.01725390  0.23862897  0.22677656    -0.06100
C37         C  0.03075272  0.36270694  0.26503573    -0.31400
N38         N  0.49994970  0.39423670  0.26631816     0.15100
C39         C  0.46708370  0.36715979  0.26321668    -0.31400
H40         H  0.43824772  0.38259922  0.26599712     0.17000
C41         C  0.02828513  0.21750149  0.32276775    -0.30400
N42         N  0.49623514  0.20203522  0.34024974     0.13800
C43         C  0.46452900  0.21833401  0.32158424    -0.30400
C44         C  0.02933939  0.21177301  0.19738466    -0.30700
N45         N  0.49770223  0.19471528  0.17934217     0.14300
H46         H  0.05923829  0.20591412  0.18994477     0.16900
C47         C  0.46571407  0.21179792  0.19702360    -0.30700
H48         H  0.43604040  0.20363801  0.18994866     0.16900
H49         H  0.43485162  0.21114609  0.32885023     0.16900
H50         H  0.06041360  0.37310999  0.27025169     0.17000
H51         H  0.05770142  0.21161997  0.33220882     0.16900
C52         C  0.04492230  0.73397293  0.25755744     0.30800
C53         C  0.46494248  0.73401489  0.25705214     0.30800
C54         C  0.02596924  0.68220193  0.25468714    -0.05400
C55         C  0.02492977  0.75468904  0.29150513    -0.06200
C56         C  0.02448092  0.76229966  0.22703616    -0.06000
C57         C  0.48494562  0.68238295  0.25454831    -0.05400
C58         C  0.48456604  0.75488282  0.29118293    -0.06200
C59         C  0.48451194  0.76195441  0.22671906    -0.06100
C60         C  0.47396080  0.63483664  0.26279008    -0.31400
N61         N  0.50593925  0.60544733  0.26620860     0.15100
C62         C  0.03760248  0.63422237  0.26279548    -0.31400
H63         H  0.06678079  0.62122707  0.26835430     0.17000
C64         C  0.47261065  0.77689813  0.32279260    -0.30400
N65         N  0.50432527  0.79045887  0.34228205     0.13800
C66         C  0.03637103  0.77609740  0.32349617    -0.30400
C67         C  0.47213545  0.78841031  0.19715769    -0.30700
N68         N  0.50358032  0.80560032  0.17959889     0.14300
H69         H  0.44225134  0.79422028  0.18896311     0.16900
C70         C  0.03577747  0.78985922  0.19791052    -0.30100
H71         H  0.06531295  0.79867519  0.19133028     0.16900
H72         H  0.06603530  0.78203946  0.33188898     0.16900
H73         H  0.44490012  0.62246456  0.26749541     0.17000
H74         H  0.44287900  0.78505306  0.32986063     0.16900
C75         C  0.29445776  0.76556291  0.24319827     0.30800
C76         C  0.21446433  0.76588387  0.24334209     0.30800
C77         C  0.27453542  0.81733276  0.24492413    -0.05400
C78         C  0.27447055  0.74383017  0.20958859    -0.06200
C79         C  0.27511867  0.73856231  0.27418156    -0.06000
C80         C  0.23355570  0.81778693  0.24494327    -0.05400
C81         C  0.23413128  0.74369880  0.20970494    -0.06200
C82         C  0.23511104  0.73863905  0.27423530    -0.06100
C83         C  0.22204177  0.86626945  0.23788907    -0.31400
N84         N  0.25387449  0.89498210  0.23520111     0.15100
C85         C  0.28571216  0.86508391  0.23773996    -0.31400
H86         H  0.31466475  0.87721870  0.23209628     0.17000
C87         C  0.22239441  0.72082421  0.17831477    -0.30400
N88         N  0.25427326  0.70695560  0.15916371     0.13800
C89         C  0.28611096  0.72189954  0.17790676    -0.30400
C90         C  0.22391595  0.71205992  0.30383574    -0.30700
N91         N  0.25615658  0.69587726  0.32179826     0.14300
H92         H  0.19439883  0.70428180  0.31130180     0.16900
C93         C  0.28762621  0.71239630  0.30392928    -0.30700
H94         H  0.31750683  0.70658752  0.31208263     0.16900
H95         H  0.31581716  0.71628444  0.16958666     0.16900
H96         H  0.19277314  0.87985217  0.23350337     0.17000
H97         H  0.19278161  0.71260896  0.17112200     0.16900
C98         C  0.20719786  0.23502983  0.24130014     0.30800
C99         C  0.28711945  0.23685943  0.24244037     0.30800
C100        C  0.22800994  0.18377106  0.24261805    -0.05400
C101        C  0.22675938  0.25806831  0.20801319    -0.06200
C102        C  0.22618913  0.26241071  0.27270972    -0.06000
C103        C  0.26885776  0.18466735  0.24328013    -0.05400
C104        C  0.26714684  0.25850518  0.20872454    -0.06200
C105        C  0.26614997  0.26366299  0.27314902    -0.06100
C106        C  0.28135157  0.13689294  0.23584679    -0.31400
N107        N  0.25032261  0.10692042  0.23247008     0.15100
C108        C  0.21770933  0.13550758  0.23513869    -0.31400
H109        H  0.18859018  0.12228479  0.23121950     0.17000
C110        C  0.27901703  0.28041019  0.17745480    -0.30400
N111        N  0.24730199  0.29504531  0.15799549     0.13800
C112        C  0.21531699  0.28038819  0.17610154    -0.30400
C113        C  0.27693051  0.29115349  0.30269535    -0.30700
N114        N  0.24452903  0.30633241  0.32056295     0.14300
H115        H  0.30637580  0.30014937  0.31005957     0.16900
C116        C  0.21335110  0.28832110  0.30236230    -0.30700
H117        H  0.18338248  0.29260038  0.31013389     0.16900
H118        H  0.18578843  0.28735081  0.16750419     0.16900
H119        H  0.31073095  0.12457879  0.23091425     0.17000
H120        H  0.30879407  0.28636169  0.16995899     0.16900
C121        C  0.28124134  0.02760909  0.24967321    -0.20500
C122        C  0.25243594  0.05348902  0.23010870    -0.08500
C123        C  0.22519010  0.02597919  0.21024827     0.30300
C124        C  0.22607436  0.97401715  0.21132417    -0.20500
C125        C  0.25432005  0.94832530  0.23187687    -0.08600
C126        C  0.28220072  0.97602011  0.25070844     0.30300
F127        F  0.30919341  0.95337418  0.27197217    -0.19100
H128        H  0.30230457  0.04754162  0.26555274     0.18700
H129        H  0.20465412  0.95381213  0.19608756     0.18700
F130        F  0.19808824  0.04915052  0.18942192    -0.19100
C131        C  0.36356364  0.79609613  0.25692800    -0.20500
C132        C  0.33886062  0.75854922  0.24521585    -0.08500
C133        C  0.35576561  0.71133139  0.23945042     0.30300
C134        C  0.39585143  0.70323770  0.24301507    -0.20500
C135        C  0.42054218  0.74082828  0.25472489    -0.08600
C136        C  0.40362051  0.78798176  0.26052742     0.30300
F137        F  0.42600018  0.82711297  0.26894309    -0.19100
H138        H  0.35230384  0.83159434  0.26483829     0.18700
H139        H  0.40712125  0.66774082  0.23508858     0.18700
F140        F  0.33339568  0.67216881  0.23106479    -0.19100
C141        C  0.11468854  0.70322251  0.24431041    -0.20500
C142        C  0.08918629  0.74089609  0.25561403    -0.08500
C143        C  0.10502408  0.78820675  0.26114033     0.30300
C144        C  0.14476397  0.79658324  0.25689875    -0.20500
C145        C  0.17024039  0.75889963  0.24557032    -0.08600
C146        C  0.15446468  0.71146345  0.24046373     0.30300
F147        F  0.17773654  0.67220672  0.23254683    -0.19100
H148        H  0.10422004  0.66734359  0.23709271     0.18700
H149        H  0.15529891  0.83249940  0.26395423     0.18700
F150        F  0.08180939  0.82718613  0.26984627    -0.19100
C151        C  0.35664389  0.20598393  0.25639876    -0.20500
C152        C  0.33134006  0.24398373  0.24517025    -0.08500
C153        C  0.34747311  0.29116485  0.24017723     0.30300
C154        C  0.38745635  0.29884850  0.24446870    -0.20500
C155        C  0.41278262  0.26041307  0.25510902    -0.08600
C156        C  0.39655183  0.21329572  0.25977910     0.30300
F157        F  0.41942006  0.17332910  0.26694664    -0.19100
H158        H  0.34602189  0.17054716  0.26397388     0.18700
H159        H  0.39824914  0.33468530  0.23805004     0.18700
F160        F  0.32444849  0.33055146  0.23177049    -0.19100
C161        C  0.10030792  0.21457521  0.26774110    -0.20500
C162        C  0.08163159  0.25839358  0.25602019    -0.08500
C163        C  0.10413177  0.29151217  0.23611459     0.30300
C164        C  0.14402075  0.28347818  0.23189747    -0.20500
C165        C  0.16270686  0.23967179  0.24352731    -0.08600
C166        C  0.14022794  0.20632760  0.26320005     0.30300
F167        F  0.15671415  0.16692836  0.27997672    -0.19100
H168        H  0.08402594  0.18562541  0.28010167     0.18700
H169        H  0.16030195  0.31262274  0.21976852     0.18700
F170        F  0.08778235  0.33057520  0.21879015    -0.19100
C171        C  0.47564750  0.47563701  0.28845246    -0.20500
C172        C  0.50258905  0.44745132  0.26860713    -0.08500
C173        C  0.03204220  0.47235536  0.25020705     0.30300
C174        C  0.03375403  0.52384125  0.25089947    -0.20500
C175        C  0.50622849  0.55222573  0.26975866    -0.08600
C176        C  0.47757217  0.52740772  0.28934310     0.30300
F177        F  0.45178625  0.55301151  0.30977901    -0.19100
H178        H  0.45320850  0.45750753  0.30343466     0.18700
H179        H  0.05579978  0.54174797  0.23527074     0.18700
F180        F  0.05810362  0.44713873  0.22980380    -0.19100
C181        C  0.03476657  0.85451904  0.38001357    -0.20500
C182        C  0.50404056  0.82205717  0.37382368    -0.08500
C183        C  0.47227240  0.82380473  0.39759068     0.30300
C184        C  0.47045262  0.85930958  0.42513540    -0.20500
C185        C  0.50074321  0.89265858  0.43037515    -0.08600
C186        C  0.03341686  0.88894257  0.40799357     0.30300
F187        F  0.06360535  0.92000797  0.41205867    -0.19100
H188        H  0.05951809  0.85473324  0.36235343     0.18700
H189        H  0.44546747  0.86042385  0.44259985     0.18700
F190        F  0.44321986  0.79090111  0.39468600    -0.19100
C191        C  0.03174524  0.86930756  0.09376184    -0.20500
C192        C  0.49905965  0.89958981  0.08734750    -0.08500
C193        C  0.46779610  0.89778717  0.11132653     0.30300
C194        C  0.46968180  0.86714500  0.14141734    -0.20500
C195        C  0.50234786  0.83675741  0.14808011    -0.08600
C196        C  0.03328861  0.83769222  0.12348061     0.30300
F197        F  0.06460855  0.80731260  0.12736186    -0.19100
H198        H  0.05602679  0.86968022  0.07547027     0.18700
H199        H  0.44564991  0.86807600  0.15992356     0.18700
F200        F  0.43586843  0.92697859  0.10654290    -0.19100
C201        C  0.46623051  0.17068023  0.39600368    -0.20500
C202        C  0.49601921  0.16839503  0.37034877    -0.08500
C203        C  0.02469068  0.13107319  0.37365936     0.30300
C204        C  0.02416237  0.09810653  0.40240417    -0.20500
C205        C  0.49461330  0.10042222  0.42804740    -0.08600
C206        C  0.46535386  0.13689310  0.42454894     0.30300
F207        F  0.43653243  0.14065728  0.44911273    -0.19100
H208        H  0.44376162  0.19885337  0.39404418     0.18700
H209        H  0.04648517  0.06965672  0.40406194     0.18700
F210        F  0.05233596  0.12474828  0.34823616    -0.19100
C211        C  0.46434566  0.16038892  0.12553787    -0.20500
C212        C  0.49763657  0.16311517  0.14774068    -0.08500
C213        C  0.03018295  0.13350448  0.13866936     0.30300
C214        C  0.02931659  0.10310287  0.10828586    -0.20500
C215        C  0.49591915  0.09997246  0.08657610    -0.08600
C216        C  0.46323694  0.12884424  0.09562944     0.30300
F217        F  0.43028110  0.12704620  0.07548747    -0.19100
H218        H  0.43891994  0.18280453  0.13112267     0.18700
H219        H  0.05469670  0.08056988  0.10244362     0.18700
F220        F  0.06248518  0.13174238  0.15967664    -0.19100
C221        C  0.28509788  0.59961521  0.38995915    -0.20500
C222        C  0.25385830  0.60214283  0.41392157    -0.08500
C223        C  0.22433544  0.63755568  0.40807990     0.30300
C224        C  0.22579013  0.66894510  0.37831389    -0.20500
C225        C  0.25644716  0.66543820  0.35362719    -0.08600
C226        C  0.28635638  0.63050446  0.35998867     0.30300
F227        F  0.31585619  0.62419418  0.33642769    -0.19100
H228        H  0.30803684  0.57235340  0.39369639     0.18700
H229        H  0.20279555  0.69604940  0.37452793     0.18700
F230        F  0.19429575  0.64223466  0.43127420    -0.19100
C231        C  0.22239518  0.63914385  0.07536662    -0.20500
C232        C  0.25395440  0.60669681  0.06989619    -0.08500
C233        C  0.28655774  0.61027538  0.09268973     0.30300
C234        C  0.28668141  0.64385277  0.12126055    -0.20500
C235        C  0.25472574  0.67550805  0.12756630    -0.08600
C236        C  0.22285786  0.67362535  0.10352625     0.30300
F237        F  0.19229723  0.70530858  0.10676898    -0.19100
H238        H  0.19726792  0.63792531  0.05771578     0.18700
H239        H  0.31152218  0.64366387  0.13920878     0.18700
F240        F  0.31779629  0.57985148  0.08846771    -0.19100
C241        C  0.27685157  0.33831888  0.37543658    -0.20500
C242        C  0.24395416  0.33663022  0.35277210    -0.08500
C243        C  0.21142713  0.36630979  0.36174793     0.30300
C244        C  0.21221390  0.39660666  0.39227921    -0.20500
C245        C  0.24556845  0.39931981  0.41409862    -0.08600
C246        C  0.27794148  0.36959468  0.40538995     0.30300
F247        F  0.31084707  0.37075176  0.42565501    -0.19100
H248        H  0.30212408  0.31554210  0.36997429     0.18700
H249        H  0.18704283  0.41957664  0.39799449     0.18700
F250        F  0.17946160  0.36842405  0.34029899    -0.19100
C251        C  0.27898644  0.36019551  0.12310772    -0.20500
C252        C  0.24781605  0.32793842  0.12732664    -0.08500
C253        C  0.21670309  0.33097463  0.10239633     0.30300
C254        C  0.21650527  0.36654221  0.07501855    -0.20500
C255        C  0.24766934  0.39875741  0.07125448    -0.08600
C256        C  0.27914326  0.39479571  0.09542609     0.30300
F257        F  0.30961044  0.42568112  0.09326060    -0.19100
H258        H  0.30302754  0.35996383  0.14197112     0.18700
H259        H  0.19223837  0.36833855  0.05634350     0.18700
F260        F  0.18685299  0.29915027  0.10380448    -0.19100
O261        O  0.21933418  0.55428464  0.52936470    -0.73600
O262        O  0.21536881  0.45425382  0.95626969    -0.73700
O263        O  0.21586000  0.45398109  0.52963502    -0.73700
O264        O  0.21913924  0.55376065  0.95635874    -0.73800
O265        O  0.28363346  0.54744628  0.95612807    -0.73700
O266        O  0.28042854  0.45025114  0.53008947    -0.73700
O267        O  0.27983673  0.44839570  0.95709930    -0.73600
O268        O  0.28385338  0.54951720  0.52915465    -0.73700
Ni269      Ni  0.21507544  0.50420599  0.49296259     1.25400
Ni270      Ni  0.28416918  0.49871846  0.99316739     1.25400
C271        C  0.25230757  0.56850100  0.54129494     0.88600
C272        C  0.24698578  0.43532161  0.94420955     0.88500
C273        C  0.24784052  0.43602511  0.54217727     0.88500
C274        C  0.25203243  0.56643180  0.94382095     0.88700
O275        O  0.03027262  0.94996573  0.54406925    -0.73600
O276        O  0.02751830  0.04825401  0.97017243    -0.73700
O277        O  0.02799885  0.04910320  0.54344014    -0.73700
O278        O  0.03026468  0.94888054  0.97116499    -0.73800
O279        O  0.46574983  0.94687415  0.97057307    -0.73700
O280        O  0.46342768  0.04892696  0.54309682    -0.73700
O281        O  0.46290486  0.04763145  0.96975882    -0.73600
O282        O  0.46568271  0.94954387  0.54390951    -0.73700
Ni283      Ni  0.03122988  0.99916853  0.50715851     1.25400
Ni284      Ni  0.46208324  0.99818939  0.50671777     1.25400
C285        C  0.49830916  0.93436634  0.55674753     0.88600
C286        C  0.49488153  0.06399537  0.95764021     0.88500
C287        C  0.49557833  0.06477100  0.55592681     0.88500
C288        C  0.49864909  0.93115750  0.95886316     0.88700
C289        C  0.45713625  0.26628977  0.75761196     0.30800
C290        C  0.03716000  0.26394583  0.75855263     0.30800
C291        C  0.47715318  0.31773634  0.75757041    -0.05400
C292        C  0.47662478  0.24221082  0.79092888    -0.06200
C293        C  0.47725101  0.23937020  0.72635019    -0.06000
C294        C  0.01797930  0.31575890  0.75829284    -0.05400
C295        C  0.01707713  0.24102486  0.79142258    -0.06200
C296        C  0.01725421  0.23862995  0.72677697    -0.06100
C297        C  0.03075261  0.36270781  0.76503580    -0.31400
N298        N  0.49994932  0.39423728  0.76631829     0.15100
C299        C  0.46708342  0.36716010  0.76321703    -0.31400
H300        H  0.43824740  0.38259931  0.76599748     0.17000
C301        C  0.02828596  0.21750147  0.82276787    -0.30400
N302        N  0.49623610  0.20203501  0.84025003     0.13800
C303        C  0.46452987  0.21833416  0.82158489    -0.30400
C304        C  0.02933978  0.21177520  0.69738458    -0.30700
N305        N  0.49770265  0.19471750  0.67934187     0.14300
H306        H  0.05923865  0.20591768  0.68994447     0.16900
C307        C  0.46571447  0.21179904  0.69702390    -0.30700
H308        H  0.43604077  0.20363904  0.68994911     0.16900
H309        H  0.43485253  0.21114614  0.82885108     0.16900
H310        H  0.06041373  0.37311131  0.77025147     0.17000
H311        H  0.05770239  0.21161949  0.83220862     0.16900
C312        C  0.04492212  0.73397296  0.75755619     0.30800
C313        C  0.46494231  0.73401499  0.75705128     0.30800
C314        C  0.02596906  0.68220193  0.75468695    -0.05400
C315        C  0.02492979  0.75469013  0.79150356    -0.06200
C316        C  0.02448061  0.76229857  0.72703449    -0.06000
C317        C  0.48494543  0.68238303  0.75454829    -0.05400
C318        C  0.48456608  0.75488406  0.79118156    -0.06200
C319        C  0.48451160  0.76195328  0.72671755    -0.06100
C320        C  0.47396049  0.63483681  0.76279010    -0.31400
N321        N  0.50593902  0.60544754  0.76620862     0.15100
C322        C  0.03760222  0.63422244  0.76279523    -0.31400
H323        H  0.06678078  0.62122684  0.76835374     0.17000
C324        C  0.47261088  0.77689941  0.82279130    -0.30400
N325        N  0.50432571  0.79046008  0.84228053     0.13800
C326        C  0.03637137  0.77609844  0.82349450    -0.30400
C327        C  0.47213489  0.78840809  0.69715578    -0.30700
N328        N  0.50357972  0.80559780  0.67959666     0.14300
H329        H  0.44225079  0.79421780  0.68896136     0.16900
C330        C  0.03577703  0.78985743  0.69790848    -0.30100
H331        H  0.06531237  0.79867353  0.69132823     0.16900
H332        H  0.06603570  0.78204020  0.83188722     0.16900
H333        H  0.44490001  0.62246476  0.76749545     0.17000
H334        H  0.44287939  0.78505399  0.82985963     0.16900
C335        C  0.29445765  0.76556304  0.74319839     0.30800
C336        C  0.21446424  0.76588393  0.74334264     0.30800
C337        C  0.27453530  0.81733288  0.74492436    -0.05400
C338        C  0.27447025  0.74383020  0.70958883    -0.06200
C339        C  0.27511876  0.73856248  0.77418181    -0.06000
C340        C  0.23355559  0.81778700  0.74494372    -0.05400
C341        C  0.23413099  0.74369894  0.70970541    -0.06200
C342        C  0.23511115  0.73863908  0.77423575    -0.06100
C343        C  0.22204156  0.86626951  0.73788952    -0.31400
N344        N  0.25387424  0.89498216  0.73520140     0.15100
C345        C  0.28571195  0.86508407  0.73774013    -0.31400
H346        H  0.31466440  0.87721901  0.73209635     0.17000
C347        C  0.22239377  0.72082424  0.67831543    -0.30400
N348        N  0.25427248  0.70695538  0.65916421     0.13800
C349        C  0.28611031  0.72189923  0.67790702    -0.30400
C350        C  0.22391634  0.71205958  0.80383612    -0.30700
N351        N  0.25615713  0.69587696  0.82179848     0.14300
H352        H  0.19439930  0.70428116  0.81130218     0.16900
C353        C  0.28762657  0.71239643  0.80392941    -0.30700
H354        H  0.31750724  0.70658798  0.81208254     0.16900
H355        H  0.31581662  0.71628385  0.66958670     0.16900
H356        H  0.19277303  0.87985225  0.73350384     0.17000
H357        H  0.19278099  0.71260900  0.67112298     0.16900
C358        C  0.20719814  0.23503010  0.74129980     0.30800
C359        C  0.28711977  0.23685918  0.74244037     0.30800
C360        C  0.22801006  0.18377120  0.74261789    -0.05400
C361        C  0.22675989  0.25806829  0.70801288    -0.06200
C362        C  0.22618940  0.26241097  0.77270940    -0.06000
C363        C  0.26885788  0.18466726  0.74328029    -0.05400
C364        C  0.26714735  0.25850484  0.70872432    -0.06200
C365        C  0.26615022  0.26366297  0.77314886    -0.06100
C366        C  0.28135164  0.13689270  0.73584753    -0.31400
N367        N  0.25032265  0.10692037  0.73247060     0.15100
C368        C  0.21770937  0.13550769  0.73513859    -0.31400
H369        H  0.18859037  0.12228501  0.73121901     0.17000
C370        C  0.27901772  0.28040941  0.67745439    -0.30400
N371        N  0.24730274  0.29504455  0.65799490     0.13800
C372        C  0.21531767  0.28038791  0.67610108    -0.30400
C373        C  0.27693079  0.29115312  0.80269538    -0.30700
N374        N  0.24452934  0.30633218  0.82056288     0.14300
H375        H  0.30637609  0.30014851  0.81005984     0.16900
C376        C  0.21335128  0.28832130  0.80236207    -0.30700
H377        H  0.18338293  0.29260070  0.81013359     0.16900
H378        H  0.18578912  0.28735063  0.66750372     0.16900
H379        H  0.31073108  0.12457830  0.73091546     0.17000
H380        H  0.30879469  0.28636054  0.66995862     0.16900
C381        C  0.28124051  0.02760898  0.74967469    -0.20500
C382        C  0.25243581  0.05348898  0.73010937    -0.08500
C383        C  0.22519052  0.02597925  0.71024816     0.30300
C384        C  0.22607466  0.97401725  0.71132405    -0.20500
C385        C  0.25431975  0.94832534  0.73187735    -0.08600
C386        C  0.28219984  0.97602000  0.75070975     0.30300
F387        F  0.30919183  0.95337380  0.77197408    -0.19100
H388        H  0.30230326  0.04754144  0.76555487     0.18700
H389        H  0.20465473  0.95381223  0.69608688     0.18700
F390        F  0.19808926  0.04915061  0.68942116    -0.19100
C391        C  0.36356366  0.79609648  0.75692724    -0.20500
C392        C  0.33886051  0.75854930  0.74521570    -0.08500
C393        C  0.35576539  0.71133142  0.73945050     0.30300
C394        C  0.39585123  0.70323764  0.74301501    -0.20500
C395        C  0.42054207  0.74082847  0.75472428    -0.08600
C396        C  0.40362058  0.78798210  0.76052632     0.30300
F397        F  0.42600040  0.82711353  0.76894117    -0.19100
H398        H  0.35230410  0.83159458  0.76483725     0.18700
H399        H  0.40712086  0.66774086  0.73508876     0.18700
F400        F  0.33339539  0.67216873  0.73106527    -0.19100
C401        C  0.11468860  0.70322240  0.74431045    -0.20500
C402        C  0.08918604  0.74089621  0.75561289    -0.08500
C403        C  0.10502357  0.78820715  0.76113865     0.30300
C404        C  0.14476356  0.79658351  0.75689796    -0.20500
C405        C  0.17024032  0.75889959  0.74557076    -0.08600
C406        C  0.15446479  0.71146323  0.74046448     0.30300
F407        F  0.17773688  0.67220641  0.73254843    -0.19100
H408        H  0.10422022  0.66734301  0.73709300     0.18700
H409        H  0.15529821  0.83249991  0.76395316     0.18700
F410        F  0.08180856  0.82718679  0.76984330    -0.19100
C411        C  0.35664423  0.20598374  0.75639937    -0.20500
C412        C  0.33134041  0.24398338  0.74517048    -0.08500
C413        C  0.34747343  0.29116445  0.74017739     0.30300
C414        C  0.38745662  0.29884829  0.74446895    -0.20500
C415        C  0.41278291  0.26041311  0.75510970    -0.08600
C416        C  0.39655216  0.21329580  0.75978001     0.30300
F417        F  0.41942042  0.17332937  0.76694796    -0.19100
H418        H  0.34602229  0.17054708  0.76397449     0.18700
H419        H  0.39824935  0.33468504  0.73805006     0.18700
F420        F  0.32444878  0.33055089  0.73177042    -0.19100
C421        C  0.10030811  0.21457578  0.76774050    -0.20500
C422        C  0.08163198  0.25839453  0.75602021    -0.08500
C423        C  0.10413222  0.29151315  0.73611468     0.30300
C424        C  0.14402119  0.28347893  0.73189723    -0.20500
C425        C  0.16270714  0.23967231  0.74352688    -0.08600
C426        C  0.14022805  0.20632795  0.76319925     0.30300
F427        F  0.15671397  0.16692820  0.77997545    -0.19100
H428        H  0.08402605  0.18562586  0.78010076     0.18700
H429        H  0.16030240  0.31262324  0.71976821     0.18700
F430        F  0.08778290  0.33057647  0.71879056    -0.19100
C431        C  0.47564733  0.47563750  0.78845274    -0.20500
C432        C  0.50258851  0.44745181  0.76860701    -0.08500
C433        C  0.03204131  0.47235585  0.75020635     0.30300
C434        C  0.03375314  0.52384168  0.75089874    -0.20500
C435        C  0.50622821  0.55222606  0.76975864    -0.08600
C436        C  0.47757217  0.52740812  0.78934350     0.30300
F437        F  0.45178662  0.55301195  0.80977978    -0.19100
H438        H  0.45320847  0.45750800  0.80343520     0.18700
H439        H  0.05579858  0.54174848  0.73526957     0.18700
F440        F  0.05810238  0.44713917  0.72980275    -0.19100
C441        C  0.03476704  0.85452010  0.88001200    -0.20500
C442        C  0.50404132  0.82205792  0.87382238    -0.08500
C443        C  0.47227368  0.82380439  0.89758995     0.30300
C444        C  0.47045396  0.85930876  0.92513498    -0.20500
C445        C  0.50074412  0.89265846  0.93037434    -0.08600
C446        C  0.03341739  0.88894339  0.90799218     0.30300
F447        F  0.06360535  0.92000973  0.91205678    -0.19100
H448        H  0.05951823  0.85473503  0.86235134     0.18700
H449        H  0.44546925  0.86042212  0.94259986     0.18700
F450        F  0.44322155  0.79090023  0.89468543    -0.19100
C451        C  0.03174500  0.86930814  0.59376110    -0.20500
C452        C  0.49905917  0.89959017  0.58734700    -0.08500
C453        C  0.46779511  0.89778563  0.61132533     0.30300
C454        C  0.46968065  0.86714218  0.64141539    -0.20500
C455        C  0.50234707  0.83675522  0.64807809    -0.08600
C456        C  0.03328824  0.83769152  0.62347912     0.30300
F457        F  0.06460847  0.80731231  0.62736020    -0.19100
H458        H  0.05602690  0.86968202  0.57546987     0.18700
H459        H  0.44564842  0.86807197  0.65992118     0.18700
F460        F  0.43586704  0.92697637  0.60654180    -0.19100
C461        C  0.46623153  0.17067969  0.89600382    -0.20500
C462        C  0.49602025  0.16839448  0.87034886    -0.08500
C463        C  0.02469157  0.13107245  0.87365919     0.30300
C464        C  0.02416320  0.09810560  0.90240392    -0.20500
C465        C  0.49461421  0.10042136  0.92804730    -0.08600
C466        C  0.46535483  0.13689223  0.92454890     0.30300
F467        F  0.43653313  0.14065614  0.94911247    -0.19100
H468        H  0.44376294  0.19885265  0.89404449     0.18700
H469        H  0.04648599  0.06965550  0.90406156     0.18700
F470        F  0.05233667  0.12474752  0.84823583    -0.19100
C471        C  0.46434495  0.16038883  0.62553895    -0.20500
C472        C  0.49763717  0.16311820  0.64773988    -0.08500
C473        C  0.03018474  0.13351091  0.63866621     0.30300
C474        C  0.02931791  0.10310916  0.60828287    -0.20500
C475        C  0.49591915  0.09997508  0.58657539    -0.08600
C476        C  0.46323601  0.12884388  0.59563067     0.30300
F477        F  0.43027879  0.12704252  0.57549090    -0.19100
H478        H  0.43891841  0.18280175  0.63112510     0.18700
H479        H  0.05469907  0.08057883  0.60243898     0.18700
F480        F  0.06248904  0.13175233  0.65967081    -0.19100
C481        C  0.28509982  0.59961630  0.88996016    -0.20500
C482        C  0.25385941  0.60214211  0.91392170    -0.08500
C483        C  0.22433560  0.63755352  0.90807932     0.30300
C484        C  0.22579019  0.66894307  0.87831342    -0.20500
C485        C  0.25644796  0.66543779  0.85362741    -0.08600
C486        C  0.28635820  0.63050559  0.85998968     0.30300
F487        F  0.31585900  0.62419680  0.83642957    -0.19100
H488        H  0.30803963  0.57235567  0.89369802     0.18700
H489        H  0.20279484  0.69604629  0.87452704     0.18700
F490        F  0.19429502  0.64223092  0.93127279    -0.19100
C491        C  0.22239355  0.63914343  0.57536741    -0.20500
C492        C  0.25395295  0.60669670  0.56989667    -0.08500
C493        C  0.28655637  0.61027528  0.59269007     0.30300
C494        C  0.28668013  0.64385249  0.62126096    -0.20500
C495        C  0.25472451  0.67550776  0.62756687    -0.08600
C496        C  0.22285638  0.67362491  0.60352713     0.30300
F497        F  0.19229556  0.70530781  0.60677024    -0.19100
H498        H  0.19726628  0.63792473  0.55771687     0.18700
H499        H  0.31152094  0.64366347  0.63920909     0.18700
F500        F  0.31779493  0.57985145  0.58846794    -0.19100
C501        C  0.27685145  0.33831706  0.87543722    -0.20500
C502        C  0.24395439  0.33662956  0.85277224    -0.08500
C503        C  0.21142769  0.36630985  0.86174773     0.30300
C504        C  0.21221434  0.39660630  0.89227924    -0.20500
C505        C  0.24556858  0.39931845  0.91409916    -0.08600
C506        C  0.27794129  0.36959255  0.90539081     0.30300
F507        F  0.31084659  0.37074875  0.92565631    -0.19100
H508        H  0.30212367  0.31553980  0.86997510     0.18700
H509        H  0.18704356  0.41957692  0.89799420     0.18700
F510        F  0.17946273  0.36842544  0.84029811    -0.19100
C511        C  0.27898767  0.36019369  0.62310622    -0.20500
C512        C  0.24781693  0.32793717  0.62732566    -0.08500
C513        C  0.21670374  0.33097370  0.60239565     0.30300
C514        C  0.21650563  0.36654156  0.57501795    -0.20500
C515        C  0.24766979  0.39875671  0.57125366    -0.08600
C516        C  0.27914417  0.39479422  0.59542468     0.30300
F517        F  0.30961161  0.42567923  0.59325892    -0.19100
H518        H  0.30302900  0.35996151  0.64196906     0.18700
H519        H  0.19223859  0.36833830  0.55634344     0.18700
F520        F  0.18685342  0.29914965  0.60380412    -0.19100
O521        O  0.71933536  0.55428468  0.02936441    -0.73600
O522        O  0.71536840  0.45425439  0.45626924    -0.73700
O523        O  0.71586019  0.45398136  0.02963535    -0.73700
O524        O  0.71913814  0.55376136  0.45635878    -0.73800
O525        O  0.78363240  0.54744750  0.45612806    -0.73700
O526        O  0.78042873  0.45025031  0.03008979    -0.73700
O527        O  0.77983636  0.44839704  0.45709878    -0.73600
O528        O  0.78385454  0.54951626  0.02915460    -0.73700
Ni529      Ni  0.71507616  0.50420558  0.99296264     1.25400
Ni530      Ni  0.78416850  0.49871943  0.49316714     1.25400
C531        C  0.75230885  0.56850071  0.04129466     0.88600
C532        C  0.74698547  0.43532273  0.44420896     0.88500
C533        C  0.74784052  0.43602510  0.04217770     0.88500
C534        C  0.75203130  0.56643276  0.44382097     0.88700
O535        O  0.53027313  0.94996433  0.04406915    -0.73600
O536        O  0.52751748  0.04825483  0.47017243    -0.73700
O537        O  0.52799930  0.04910174  0.04344047    -0.73700
O538        O  0.53026385  0.94888132  0.47116534    -0.73800
O539        O  0.96574904  0.94687491  0.47057358    -0.73700
O540        O  0.96342804  0.04892546  0.04309677    -0.73700
O541        O  0.96290400  0.04763228  0.46975887    -0.73600
O542        O  0.96568322  0.94954240  0.04390910    -0.73700
Ni543      Ni  0.53123055  0.99916742  0.00715854     1.25400
Ni544      Ni  0.96208385  0.99818825  0.00671748     1.25400
C545        C  0.99830965  0.93436509  0.05674734     0.88600
C546        C  0.99488060  0.06399621  0.45764019     0.88500
C547        C  0.99557865  0.06476922  0.05592704     0.88500
C548        C  0.99864825  0.93115808  0.45886368     0.88700
C549        C  0.95713591  0.26628951  0.25761119     0.30800
C550        C  0.53715969  0.26394487  0.25855234     0.30800
C551        C  0.97715309  0.31773594  0.25756977    -0.05400
C552        C  0.97662415  0.24221036  0.29092816    -0.06200
C553        C  0.97725070  0.23936972  0.22634951    -0.06000
C554        C  0.51797921  0.31575813  0.25829244    -0.05400
C555        C  0.51707655  0.24102422  0.29142221    -0.06200
C556        C  0.51725393  0.23862892  0.22677664    -0.06100
C557        C  0.53075280  0.36270695  0.26503571    -0.31400
N558        N  0.99994961  0.39423670  0.26631811     0.15100
C559        C  0.96708361  0.36715981  0.26321654    -0.31400
H560        H  0.93824765  0.38259925  0.26599691     0.17000
C561        C  0.52828512  0.21750144  0.32276780    -0.30400
N562        N  0.99623510  0.20203527  0.34024972     0.13800
C563        C  0.96452899  0.21833400  0.32158423    -0.30400
C564        C  0.52933945  0.21177292  0.19738475    -0.30700
N565        N  0.99770226  0.19471526  0.17934212     0.14300
H566        H  0.55923823  0.20591400  0.18994492     0.16900
C567        C  0.96571399  0.21179786  0.19702355    -0.30700
H568        H  0.93604057  0.20363796  0.18994869     0.16900
H569        H  0.93485156  0.21114600  0.32885026     0.16900
H570        H  0.56041373  0.37311002  0.27025162     0.17000
H571        H  0.55770149  0.21161987  0.33220892     0.16900
C572        C  0.54492230  0.73397295  0.25755744     0.30800
C573        C  0.96494248  0.73401491  0.25705211     0.30800
C574        C  0.52596925  0.68220192  0.25468725    -0.05400
C575        C  0.52492979  0.75468921  0.29150508    -0.06200
C576        C  0.52448089  0.76229956  0.22703614    -0.06000
C577        C  0.98494565  0.68238296  0.25454817    -0.05400
C578        C  0.98456603  0.75488271  0.29118294    -0.06200
C579        C  0.98451199  0.76195454  0.22671911    -0.06100
C580        C  0.97396080  0.63483661  0.26278999    -0.31400
N581        N  0.00593929  0.60544730  0.26620848     0.15100
C582        C  0.53760240  0.63422237  0.26279554    -0.31400
H583        H  0.56678095  0.62122693  0.26835431     0.17000
C584        C  0.97261061  0.77689811  0.32279258    -0.30400
N585        N  0.00432525  0.79045882  0.34228205     0.13800
C586        C  0.53637107  0.77609759  0.32349611    -0.30400
C587        C  0.97213539  0.78841041  0.19715769    -0.30700
N588        N  0.00358043  0.80560035  0.17959888     0.14300
H589        H  0.94225162  0.79422030  0.18896319     0.16900
C590        C  0.53577751  0.78985921  0.19791054    -0.30100
H591        H  0.56531273  0.79867517  0.19133035     0.16900
H592        H  0.56603533  0.78203965  0.33188892     0.16900
H593        H  0.94490032  0.62246463  0.26749541     0.17000
H594        H  0.94287900  0.78505312  0.32986055     0.16900
C595        C  0.79445778  0.76556283  0.24319824     0.30800
C596        C  0.71446436  0.76588378  0.24334206     0.30800
C597        C  0.77453543  0.81733267  0.24492406    -0.05400
C598        C  0.77447064  0.74382997  0.20958858    -0.06200
C599        C  0.77511871  0.73856229  0.27418157    -0.06000
C600        C  0.73355572  0.81778685  0.24494322    -0.05400
C601        C  0.73413135  0.74369862  0.20970494    -0.06200
C602        C  0.73511107  0.73863904  0.27423530    -0.06100
C603        C  0.72204180  0.86626939  0.23788908    -0.31400
N604        N  0.75387449  0.89498206  0.23520110     0.15100
C605        C  0.78571218  0.86508384  0.23773992    -0.31400
H606        H  0.81466468  0.87721855  0.23209621     0.17000
C607        C  0.72239450  0.72082398  0.17831481    -0.30400
N608        N  0.75427335  0.70695536  0.15916374     0.13800
C609        C  0.78611101  0.72189926  0.17790678    -0.30400
C610        C  0.72391589  0.71206001  0.30383580    -0.30700
N611        N  0.75615667  0.69587736  0.32179832     0.14300
H612        H  0.69439905  0.70428197  0.31130182     0.16900
C613        C  0.78762616  0.71239642  0.30392933    -0.30700
H614        H  0.81750704  0.70658764  0.31208274     0.16900
H615        H  0.81581739  0.71628418  0.16958658     0.16900
H616        H  0.69277310  0.87985211  0.23350336     0.17000
H617        H  0.69278166  0.71260874  0.17112202     0.16900
C618        C  0.70719786  0.23502979  0.24130008     0.30800
C619        C  0.78711944  0.23685935  0.24244032     0.30800
C620        C  0.72800990  0.18377101  0.24261803    -0.05400
C621        C  0.72675938  0.25806830  0.20801315    -0.06200
C622        C  0.72618911  0.26241065  0.27270963    -0.06000
C623        C  0.76885772  0.18466727  0.24328011    -0.05400
C624        C  0.76714684  0.25850512  0.20872449    -0.06200
C625        C  0.76614992  0.26366291  0.27314893    -0.06100
C626        C  0.78135147  0.13689287  0.23584678    -0.31400
N627        N  0.75032254  0.10692036  0.23247008     0.15100
C628        C  0.71770923  0.13550753  0.23513868    -0.31400
H629        H  0.68859013  0.12228479  0.23121948     0.17000
C630        C  0.77901708  0.28041014  0.17745474    -0.30400
N631        N  0.74730196  0.29504531  0.15799544     0.13800
C632        C  0.71531703  0.28038818  0.17610152    -0.30400
C633        C  0.77693049  0.29115352  0.30269522    -0.30700
N634        N  0.74452895  0.30633246  0.32056279     0.14300
H635        H  0.80637557  0.30014933  0.31005937     0.16900
C636        C  0.71335101  0.28832114  0.30236216    -0.30700
H637        H  0.68338247  0.29260037  0.31013371     0.16900
H638        H  0.68578834  0.28735079  0.16750413     0.16900
H639        H  0.81073088  0.12457868  0.23091418     0.17000
H640        H  0.80879394  0.28636159  0.16995892     0.16900
C641        C  0.78124133  0.02760908  0.24967316    -0.20500
C642        C  0.75243588  0.05348898  0.23010863    -0.08500
C643        C  0.72519010  0.02597915  0.21024813     0.30300
C644        C  0.72607440  0.97401714  0.21132407    -0.20500
C645        C  0.75432009  0.94832526  0.23187675    -0.08600
C646        C  0.78220076  0.97602008  0.25070828     0.30300
F647        F  0.80919334  0.95337417  0.27197216    -0.19100
H648        H  0.80230438  0.04754154  0.26555274     0.18700
H649        H  0.70465404  0.95381201  0.19608743     0.18700
F650        F  0.69808824  0.04915049  0.18942176    -0.19100
C651        C  0.86356360  0.79609610  0.25692800    -0.20500
C652        C  0.83886064  0.75854918  0.24521577    -0.08500
C653        C  0.85576567  0.71133141  0.23945029     0.30300
C654        C  0.89585150  0.70323769  0.24301503    -0.20500
C655        C  0.92054219  0.74082832  0.25472487    -0.08600
C656        C  0.90362048  0.78798176  0.26052743     0.30300
F657        F  0.92600009  0.82711301  0.26894310    -0.19100
H658        H  0.85230378  0.83159427  0.26483832     0.18700
H659        H  0.90712127  0.66774093  0.23508864     0.18700
F660        F  0.83339580  0.67216876  0.23106475    -0.19100
C661        C  0.61468853  0.70322251  0.24431045    -0.20500
C662        C  0.58918628  0.74089606  0.25561403    -0.08500
C663        C  0.60502408  0.78820673  0.26114033     0.30300
C664        C  0.64476398  0.79658318  0.25689875    -0.20500
C665        C  0.67024040  0.75889959  0.24557030    -0.08600
C666        C  0.65446465  0.71146340  0.24046373     0.30300
F667        F  0.67773648  0.67220668  0.23254682    -0.19100
H668        H  0.60421997  0.66734341  0.23709273     0.18700
H669        H  0.65529896  0.83249942  0.26395427     0.18700
F670        F  0.58180937  0.82718609  0.26984625    -0.19100
C671        C  0.85664393  0.20598384  0.25639859    -0.20500
C672        C  0.83134007  0.24398370  0.24517019    -0.08500
C673        C  0.84747309  0.29116483  0.24017717     0.30300
C674        C  0.88745634  0.29884845  0.24446850    -0.20500
C675        C  0.91278262  0.26041308  0.25510889    -0.08600
C676        C  0.89655187  0.21329572  0.25977901     0.30300
F677        F  0.91942014  0.17332915  0.26694663    -0.19100
H678        H  0.84602202  0.17054710  0.26397356     0.18700
H679        H  0.89824919  0.33468535  0.23804976     0.18700
F680        F  0.82444844  0.33055144  0.23177050    -0.19100
C681        C  0.60030803  0.21457524  0.26774125    -0.20500
C682        C  0.58163167  0.25839353  0.25602022    -0.08500
C683        C  0.60413181  0.29151202  0.23611452     0.30300
C684        C  0.64402081  0.28347815  0.23189742    -0.20500
C685        C  0.66270689  0.23967175  0.24352730    -0.08600
C686        C  0.64022805  0.20632762  0.26320010     0.30300
F687        F  0.65671429  0.16692837  0.27997674    -0.19100
H688        H  0.58402612  0.18562551  0.28010189     0.18700
H689        H  0.66030192  0.31262260  0.21976853     0.18700
F690        F  0.58778242  0.33057503  0.21879006    -0.19100
C691        C  0.97564749  0.47563702  0.28845242    -0.20500
C692        C  0.00258901  0.44745129  0.26860709    -0.08500
C693        C  0.53204223  0.47235542  0.25020710     0.30300
C694        C  0.53375397  0.52384133  0.25089948    -0.20500
C695        C  0.00622856  0.55222571  0.26975862    -0.08600
C696        C  0.97757221  0.52740773  0.28934305     0.30300
F697        F  0.95178637  0.55301154  0.30977903    -0.19100
H698        H  0.95320845  0.45750756  0.30343461     0.18700
H699        H  0.55579967  0.54174810  0.23527073     0.18700
F700        F  0.55810369  0.44713883  0.22980387    -0.19100
C701        C  0.53476656  0.85451897  0.38001363    -0.20500
C702        C  0.00404053  0.82205720  0.37382367    -0.08500
C703        C  0.97227246  0.82380471  0.39759069     0.30300
C704        C  0.97045262  0.85930957  0.42513545    -0.20500
C705        C  0.00074324  0.89265862  0.43037514    -0.08600
C706        C  0.53341688  0.88894247  0.40799360     0.30300
F707        F  0.56360539  0.92000779  0.41205871    -0.19100
H708        H  0.55951822  0.85473321  0.36235342     0.18700
H709        H  0.94546763  0.86042378  0.44259981     0.18700
F710        F  0.94321995  0.79090105  0.39468602    -0.19100
C711        C  0.53174522  0.86930743  0.09376184    -0.20500
C712        C  0.99905968  0.89958988  0.08734748    -0.08500
C713        C  0.96779613  0.89778727  0.11132653     0.30300
C714        C  0.96968182  0.86714504  0.14141731    -0.20500
C715        C  0.00234786  0.83675751  0.14808011    -0.08600
C716        C  0.53328853  0.83769200  0.12348058     0.30300
F717        F  0.56460842  0.80731227  0.12736183    -0.19100
H718        H  0.55602675  0.86968011  0.07547032     0.18700
H719        H  0.94564986  0.86807599  0.15992353     0.18700
F720        F  0.93586848  0.92697870  0.10654289    -0.19100
C721        C  0.96623047  0.17068032  0.39600364    -0.20500
C722        C  0.99601922  0.16839506  0.37034873    -0.08500
C723        C  0.52469070  0.13107307  0.37365940     0.30300
C724        C  0.52416229  0.09810639  0.40240416    -0.20500
C725        C  0.99461328  0.10042228  0.42804736    -0.08600
C726        C  0.96535383  0.13689310  0.42454886     0.30300
F727        F  0.93653227  0.14065725  0.44911253    -0.19100
H728        H  0.94376174  0.19885329  0.39404416     0.18700
H729        H  0.54648509  0.06965632  0.40406188     0.18700
F730        F  0.55233599  0.12474805  0.34823622    -0.19100
C731        C  0.96434568  0.16038892  0.12553784    -0.20500
C732        C  0.99763657  0.16311508  0.14774068    -0.08500
C733        C  0.53018297  0.13350461  0.13866929     0.30300
C734        C  0.52931656  0.10310296  0.10828584    -0.20500
C735        C  0.99591919  0.09997246  0.08657606    -0.08600
C736        C  0.96323702  0.12884429  0.09562937     0.30300
F737        F  0.93028127  0.12704657  0.07548724    -0.19100
H738        H  0.93892012  0.18280452  0.13112257     0.18700
H739        H  0.55469666  0.08056998  0.10244360     0.18700
F740        F  0.56248529  0.13174251  0.15967645    -0.19100
C741        C  0.78509786  0.59961530  0.38995916    -0.20500
C742        C  0.75385828  0.60214282  0.41392156    -0.08500
C743        C  0.72433543  0.63755577  0.40807994     0.30300
C744        C  0.72579016  0.66894514  0.37831394    -0.20500
C745        C  0.75644712  0.66543829  0.35362722    -0.08600
C746        C  0.78635638  0.63050451  0.35998869     0.30300
F747        F  0.81585612  0.62419419  0.33642765    -0.19100
H748        H  0.80803691  0.57235339  0.39369639     0.18700
H749        H  0.70279551  0.69604973  0.37452800     0.18700
F750        F  0.69429593  0.64223498  0.43127442    -0.19100
C751        C  0.72239517  0.63914385  0.07536652    -0.20500
C752        C  0.75395444  0.60669682  0.06989610    -0.08500
C753        C  0.78655774  0.61027539  0.09268964     0.30300
C754        C  0.78668143  0.64385270  0.12126052    -0.20500
C755        C  0.75472572  0.67550795  0.12756627    -0.08600
C756        C  0.72285784  0.67362531  0.10352624     0.30300
F757        F  0.69229717  0.70530852  0.10676898    -0.19100
H758        H  0.69726804  0.63792526  0.05771578     0.18700
H759        H  0.81152204  0.64366372  0.13920868     0.18700
F760        F  0.81779627  0.57985143  0.08846772    -0.19100
C761        C  0.77685162  0.33831891  0.37543637    -0.20500
C762        C  0.74395411  0.33663016  0.35277198    -0.08500
C763        C  0.71142703  0.36630950  0.36174793     0.30300
C764        C  0.71221380  0.39660638  0.39227921    -0.20500
C765        C  0.74556849  0.39931976  0.41409848    -0.08600
C766        C  0.77794154  0.36959478  0.40538972     0.30300
F767        F  0.81084721  0.37075207  0.42565469    -0.19100
H768        H  0.80212409  0.31554227  0.36997403     0.18700
H769        H  0.68704271  0.41957615  0.39799458     0.18700
F770        F  0.67946147  0.36842370  0.34029902    -0.19100
C771        C  0.77898637  0.36019568  0.12310774    -0.20500
C772        C  0.74781602  0.32793842  0.12732659    -0.08500
C773        C  0.71670310  0.33097447  0.10239623     0.30300
C774        C  0.71650527  0.36654202  0.07501840    -0.20500
C775        C  0.74766929  0.39875739  0.07125439    -0.08600
C776        C  0.77914313  0.39479588  0.09542606     0.30300
F777        F  0.80961027  0.42568142  0.09326061    -0.19100
H778        H  0.80302729  0.35996409  0.14197110     0.18700
H779        H  0.69223846  0.36833821  0.05634332     0.18700
F780        F  0.68685300  0.29915006  0.10380445    -0.19100
O781        O  0.71933416  0.55428452  0.52936465    -0.73600
O782        O  0.71536872  0.45425363  0.95626962    -0.73700
O783        O  0.71586008  0.45398097  0.52963501    -0.73700
O784        O  0.71913922  0.55376049  0.95635861    -0.73800
O785        O  0.78363346  0.54744626  0.95612805    -0.73700
O786        O  0.78042863  0.45025101  0.53008945    -0.73700
O787        O  0.77983665  0.44839570  0.95709913    -0.73600
O788        O  0.78385337  0.54951709  0.52915462    -0.73700
Ni789      Ni  0.71507547  0.50420582  0.49296257     1.25400
Ni790      Ni  0.78416917  0.49871835  0.99316729     1.25400
C791        C  0.75230753  0.56850094  0.54129487     0.88600
C792        C  0.74698570  0.43532151  0.94420944     0.88500
C793        C  0.74784061  0.43602500  0.54217724     0.88500
C794        C  0.75203242  0.56643170  0.94382087     0.88700
O795        O  0.53027260  0.94996568  0.54406926    -0.73600
O796        O  0.52751831  0.04825398  0.97017250    -0.73700
O797        O  0.52799885  0.04910318  0.54344018    -0.73700
O798        O  0.53026467  0.94888051  0.97116508    -0.73800
O799        O  0.96574984  0.94687411  0.97057307    -0.73700
O800        O  0.96342766  0.04892693  0.54309681    -0.73700
O801        O  0.96290486  0.04763148  0.96975878    -0.73600
O802        O  0.96568272  0.94954379  0.54390942    -0.73700
Ni803      Ni  0.53122987  0.99916853  0.50715855     1.25400
Ni804      Ni  0.96208322  0.99818938  0.50671774     1.25400
C805        C  0.99830918  0.93436634  0.55674749     0.88600
C806        C  0.99488149  0.06399541  0.95764016     0.88500
C807        C  0.99557832  0.06477098  0.55592678     0.88500
C808        C  0.99864910  0.93115747  0.95886313     0.88700
C809        C  0.95713625  0.26628978  0.75761189     0.30800
C810        C  0.53716000  0.26394582  0.75855269     0.30800
C811        C  0.97715322  0.31773634  0.75757039    -0.05400
C812        C  0.97662475  0.24221083  0.79092879    -0.06200
C813        C  0.97725102  0.23937018  0.72635013    -0.06000
C814        C  0.51797926  0.31575888  0.75829289    -0.05400
C815        C  0.51707715  0.24102485  0.79142267    -0.06200
C816        C  0.51725418  0.23862995  0.72677704    -0.06100
C817        C  0.53075258  0.36270783  0.76503580    -0.31400
N818        N  0.99994944  0.39423727  0.76631831     0.15100
C819        C  0.96708345  0.36716014  0.76321704    -0.31400
H820        H  0.93824763  0.38259929  0.76599746     0.17000
C821        C  0.52828600  0.21750146  0.82276798    -0.30400
N822        N  0.99623605  0.20203508  0.84024993     0.13800
C823        C  0.96452985  0.21833420  0.82158479    -0.30400
C824        C  0.52933980  0.21177529  0.69738460    -0.30700
N825        N  0.99770270  0.19471734  0.67934188     0.14300
H826        H  0.55923848  0.20591781  0.68994453     0.16900
C827        C  0.96571449  0.21179895  0.69702388    -0.30700
H828        H  0.93604080  0.20363897  0.68994906     0.16900
H829        H  0.93485239  0.21114608  0.82885096     0.16900
H830        H  0.56041353  0.37311131  0.77025143     0.17000
H831        H  0.55770241  0.21161958  0.83220879     0.16900
C832        C  0.54492210  0.73397301  0.75755620     0.30800
C833        C  0.96494232  0.73401500  0.75705124     0.30800
C834        C  0.52596904  0.68220194  0.75468706    -0.05400
C835        C  0.52492979  0.75469036  0.79150353    -0.06200
C836        C  0.52448056  0.76229851  0.72703445    -0.06000
C837        C  0.98494545  0.68238303  0.75454819    -0.05400
C838        C  0.98456606  0.75488390  0.79118158    -0.06200
C839        C  0.98451167  0.76195339  0.72671759    -0.06100
C840        C  0.97396053  0.63483684  0.76279011    -0.31400
N841        N  0.00593905  0.60544758  0.76620858     0.15100
C842        C  0.53760217  0.63422246  0.76279537    -0.31400
H843        H  0.56678077  0.62122683  0.76835396     0.17000
C844        C  0.97261095  0.77689928  0.82279131    -0.30400
N845        N  0.00432572  0.79045981  0.84228057     0.13800
C846        C  0.53637134  0.77609877  0.82349445    -0.30400
C847        C  0.97213495  0.78840825  0.69715581    -0.30700
N848        N  0.00357984  0.80559796  0.67959675     0.14300
H849        H  0.94225102  0.79421788  0.68896137     0.16900
C850        C  0.53577695  0.78985735  0.69790845    -0.30100
H851        H  0.56531226  0.79867355  0.69132819     0.16900
H852        H  0.56603569  0.78204054  0.83188720     0.16900
H853        H  0.94490006  0.62246483  0.76749544     0.17000
H854        H  0.94287928  0.78505411  0.82985963     0.16900
C855        C  0.79445758  0.76556296  0.74319833     0.30800
C856        C  0.71446418  0.76588385  0.74334260     0.30800
C857        C  0.77453520  0.81733277  0.74492423    -0.05400
C858        C  0.77447016  0.74382999  0.70958882    -0.06200
C859        C  0.77511875  0.73856251  0.77418181    -0.06000
C860        C  0.73355550  0.81778692  0.74494353    -0.05400
C861        C  0.73413088  0.74369867  0.70970542    -0.06200
C862        C  0.73511112  0.73863911  0.77423576    -0.06100
C863        C  0.72204152  0.86626944  0.73788933    -0.31400
N864        N  0.75387418  0.89498206  0.73520136     0.15100
C865        C  0.78571194  0.86508397  0.73774014    -0.31400
H866        H  0.81466427  0.87721886  0.73209643     0.17000
C867        C  0.72239371  0.72082399  0.67831545    -0.30400
N868        N  0.75427236  0.70695521  0.65916419     0.13800
C869        C  0.78611020  0.72189912  0.67790699    -0.30400
C870        C  0.72391633  0.71205967  0.80383616    -0.30700
N871        N  0.75615719  0.69587710  0.82179853     0.14300
H872        H  0.69439937  0.70428122  0.81130222     0.16900
C873        C  0.78762656  0.71239652  0.80392940    -0.30700
H874        H  0.81750736  0.70658799  0.81208250     0.16900
H875        H  0.81581650  0.71628387  0.66958662     0.16900
H876        H  0.69277295  0.87985226  0.73350358     0.17000
H877        H  0.69278073  0.71260869  0.67112295     0.16900
C878        C  0.70719814  0.23503004  0.74129975     0.30800
C879        C  0.78711978  0.23685919  0.74244031     0.30800
C880        C  0.72801011  0.18377117  0.74261788    -0.05400
C881        C  0.72675984  0.25806828  0.70801279    -0.06200
C882        C  0.72618937  0.26241095  0.77270933    -0.06000
C883        C  0.76885790  0.18466723  0.74328026    -0.05400
C884        C  0.76714732  0.25850485  0.70872425    -0.06200
C885        C  0.76615021  0.26366299  0.77314878    -0.06100
C886        C  0.78135170  0.13689261  0.73584746    -0.31400
N887        N  0.75032261  0.10692030  0.73247047     0.15100
C888        C  0.71770938  0.13550767  0.73513853    -0.31400
H889        H  0.68859041  0.12228506  0.73121899     0.17000
C890        C  0.77901770  0.28040938  0.67745431    -0.30400
N891        N  0.74730267  0.29504443  0.65799476     0.13800
C892        C  0.71531768  0.28038784  0.67610097    -0.30400
C893        C  0.77693080  0.29115317  0.80269528    -0.30700
N894        N  0.74452923  0.30633222  0.82056277     0.14300
H895        H  0.80637593  0.30014852  0.81005975     0.16900
C896        C  0.71335133  0.28832126  0.80236197    -0.30700
H897        H  0.68338267  0.29260066  0.81013358     0.16900
H898        H  0.68578890  0.28735058  0.66750353     0.16900
H899        H  0.81073091  0.12457823  0.73091548     0.17000
H900        H  0.80879459  0.28636048  0.66995856     0.16900
C901        C  0.78124041  0.02760890  0.74967472    -0.20500
C902        C  0.75243573  0.05348888  0.73010930    -0.08500
C903        C  0.72519053  0.02597914  0.71024803     0.30300
C904        C  0.72607468  0.97401711  0.71132392    -0.20500
C905        C  0.75431973  0.94832524  0.73187734    -0.08600
C906        C  0.78219973  0.97601991  0.75070981     0.30300
F907        F  0.80919165  0.95337378  0.77197429    -0.19100
H908        H  0.80230305  0.04754132  0.76555485     0.18700
H909        H  0.70465489  0.95381208  0.69608669     0.18700
F910        F  0.69808940  0.04915053  0.68942088    -0.19100
C911        C  0.86356359  0.79609643  0.75692719    -0.20500
C912        C  0.83886045  0.75854930  0.74521559    -0.08500
C913        C  0.85576535  0.71133143  0.73945038     0.30300
C914        C  0.89585122  0.70323766  0.74301479    -0.20500
C915        C  0.92054205  0.74082850  0.75472414    -0.08600
C916        C  0.90362051  0.78798209  0.76052631     0.30300
F917        F  0.92600027  0.82711348  0.76894142    -0.19100
H918        H  0.85230397  0.83159456  0.76483736     0.18700
H919        H  0.90712084  0.66774096  0.73508859     0.18700
F920        F  0.83339532  0.67216872  0.73106527    -0.19100
C921        C  0.61468856  0.70322238  0.74431046    -0.20500
C922        C  0.58918603  0.74089624  0.75561289    -0.08500
C923        C  0.60502355  0.78820715  0.76113862     0.30300
C924        C  0.64476356  0.79658354  0.75689796    -0.20500
C925        C  0.67024028  0.75889956  0.74557075    -0.08600
C926        C  0.65446475  0.71146322  0.74046449     0.30300
F927        F  0.67773680  0.67220637  0.73254842    -0.19100
H928        H  0.60422021  0.66734309  0.73709309     0.18700
H929        H  0.65529818  0.83249984  0.76395307     0.18700
F930        F  0.58180848  0.82718682  0.76984306    -0.19100
C931        C  0.85664423  0.20598371  0.75639928    -0.20500
C932        C  0.83134042  0.24398340  0.74517045    -0.08500
C933        C  0.84747345  0.29116445  0.74017737     0.30300
C934        C  0.88745666  0.29884827  0.74446892    -0.20500
C935        C  0.91278293  0.26041307  0.75510964    -0.08600
C936        C  0.89655216  0.21329574  0.75977990     0.30300
F937        F  0.91942036  0.17332930  0.76694794    -0.19100
H938        H  0.84602229  0.17054711  0.76397441     0.18700
H939        H  0.89824944  0.33468499  0.73805004     0.18700
F940        F  0.82444876  0.33055087  0.73177043    -0.19100
C941        C  0.60030815  0.21457582  0.76774063    -0.20500
C942        C  0.58163196  0.25839448  0.75602028    -0.08500
C943        C  0.60413218  0.29151306  0.73611459     0.30300
C944        C  0.64402111  0.28347876  0.73189723    -0.20500
C945        C  0.66270713  0.23967225  0.74352685    -0.08600
C946        C  0.64022806  0.20632789  0.76319932     0.30300
F947        F  0.65671407  0.16692819  0.77997548    -0.19100
H948        H  0.58402603  0.18562580  0.78010105     0.18700
H949        H  0.66030251  0.31262335  0.71976809     0.18700
F950        F  0.58778282  0.33057629  0.71879040    -0.19100
C951        C  0.97564738  0.47563747  0.78845280    -0.20500
C952        C  0.00258856  0.44745183  0.76860699    -0.08500
C953        C  0.53204144  0.47235583  0.75020652     0.30300
C954        C  0.53375329  0.52384164  0.75089898    -0.20500
C955        C  0.00622819  0.55222608  0.76975855    -0.08600
C956        C  0.97757221  0.52740816  0.78934345     0.30300
F957        F  0.95178671  0.55301197  0.80977983    -0.19100
H958        H  0.95320877  0.45750809  0.80343525     0.18700
H959        H  0.55579880  0.54174843  0.73526986     0.18700
F960        F  0.55810248  0.44713918  0.72980283    -0.19100
C961        C  0.53476702  0.85452019  0.88001208    -0.20500
C962        C  0.00404132  0.82205773  0.87382242    -0.08500
C963        C  0.97227364  0.82380426  0.89758994     0.30300
C964        C  0.97045396  0.85930870  0.92513494    -0.20500
C965        C  0.00074413  0.89265840  0.93037433    -0.08600
C966        C  0.53341739  0.88894345  0.90799219     0.30300
F967        F  0.56360529  0.92000981  0.91205680    -0.19100
H968        H  0.55951847  0.85473508  0.86235131     0.18700
H969        H  0.94546917  0.86042213  0.94259990     0.18700
F970        F  0.94322153  0.79090002  0.89468546    -0.19100
C971        C  0.53174499  0.86930817  0.59376108    -0.20500
C972        C  0.99905925  0.89959022  0.58734700    -0.08500
C973        C  0.96779519  0.89778582  0.61132538     0.30300
C974        C  0.96968070  0.86714228  0.64141537    -0.20500
C975        C  0.00234709  0.83675535  0.64807814    -0.08600
C976        C  0.53328820  0.83769150  0.62347908     0.30300
F977        F  0.56460842  0.80731223  0.62736001    -0.19100
H978        H  0.55602677  0.86968210  0.57546992     0.18700
H979        H  0.94564830  0.86807205  0.65992121     0.18700
F980        F  0.93586721  0.92697671  0.60654183    -0.19100
C981        C  0.96623145  0.17067959  0.89600365    -0.20500
C982        C  0.99602021  0.16839451  0.87034876    -0.08500
C983        C  0.52469155  0.13107238  0.87365923     0.30300
C984        C  0.52416320  0.09810549  0.90240395    -0.20500
C985        C  0.99461422  0.10042136  0.92804722    -0.08600
C986        C  0.96535477  0.13689217  0.92454875     0.30300
F987        F  0.93653322  0.14065620  0.94911243    -0.19100
H988        H  0.94376280  0.19885257  0.89404428     0.18700
H989        H  0.54648586  0.06965551  0.90406157     0.18700
F990        F  0.55233672  0.12474754  0.84823590    -0.19100
C991        C  0.96434496  0.16038879  0.62553888    -0.20500
C992        C  0.99763711  0.16311804  0.64773990    -0.08500
C993        C  0.53018484  0.13351125  0.63866613     0.30300
C994        C  0.52931802  0.10310939  0.60828281    -0.20500
C995        C  0.99591911  0.09997505  0.58657534    -0.08600
C996        C  0.96323597  0.12884398  0.59563056     0.30300
F997        F  0.93027880  0.12704284  0.57549067    -0.19100
H998        H  0.93891833  0.18280191  0.63112504     0.18700
H999        H  0.55469916  0.08057917  0.60243890     0.18700
F1000       F  0.56248916  0.13175268  0.65967072    -0.19100
C1001       C  0.78509970  0.59961610  0.88995999    -0.20500
C1002       C  0.75385939  0.60214195  0.91392159    -0.08500
C1003       C  0.72433564  0.63755350  0.90807929     0.30300
C1004       C  0.72579023  0.66894304  0.87831341    -0.20500
C1005       C  0.75644799  0.66543789  0.85362742    -0.08600
C1006       C  0.78635820  0.63050558  0.85998964     0.30300
F1007       F  0.81585897  0.62419680  0.83642951    -0.19100
H1008       H  0.80803952  0.57235524  0.89369776     0.18700
H1009       H  0.70279479  0.69604632  0.87452701     0.18700
F1010       F  0.69429514  0.64223094  0.93127282    -0.19100
C1011       C  0.72239354  0.63914348  0.57536727    -0.20500
C1012       C  0.75395294  0.60669672  0.56989653    -0.08500
C1013       C  0.78655632  0.61027524  0.59268994     0.30300
C1014       C  0.78668014  0.64385243  0.62126089    -0.20500
C1015       C  0.75472442  0.67550764  0.62756681    -0.08600
C1016       C  0.72285633  0.67362486  0.60352705     0.30300
F1017       F  0.69229550  0.70530775  0.60677022    -0.19100
H1018       H  0.69726621  0.63792476  0.55771669     0.18700
H1019       H  0.81152072  0.64366342  0.63920886     0.18700
F1020       F  0.81779479  0.57985116  0.58846795    -0.19100
C1021       C  0.77685144  0.33831710  0.87543711    -0.20500
C1022       C  0.74395439  0.33662956  0.85277213    -0.08500
C1023       C  0.71142761  0.36630975  0.86174768     0.30300
C1024       C  0.71221425  0.39660607  0.89227924    -0.20500
C1025       C  0.74556855  0.39931835  0.91409907    -0.08600
C1026       C  0.77794133  0.36959254  0.90539070     0.30300
F1027       F  0.81084663  0.37074876  0.92565624    -0.19100
H1028       H  0.80212376  0.31553975  0.86997496     0.18700
H1029       H  0.68704342  0.41957651  0.89799429     0.18700
F1030       F  0.67946262  0.36842539  0.84029809    -0.19100
C1031       C  0.77898762  0.36019365  0.62310618    -0.20500
C1032       C  0.74781697  0.32793702  0.62732551    -0.08500
C1033       C  0.71670377  0.33097361  0.60239546     0.30300
C1034       C  0.71650572  0.36654151  0.57501786    -0.20500
C1035       C  0.74766980  0.39875664  0.57125359    -0.08600
C1036       C  0.77914413  0.39479422  0.59542469     0.30300
F1037       F  0.80961153  0.42567927  0.59325895    -0.19100
H1038       H  0.80302890  0.35996157  0.64196911     0.18700
H1039       H  0.69223847  0.36833826  0.55634312     0.18700
F1040       F  0.68685351  0.29914955  0.60380389    -0.19100
loop_ 
_geom_bond_atom_site_label_1 
_geom_bond_atom_site_label_2 
_geom_bond_distance 
_geom_bond_site_symmetry_2 
_ccdc_geom_bond_type 
O1           Ni9   1.921   1_554  S
O1           C11   1.282       .  A
O2         Ni269   1.920       .  S
O2           C12   1.282       .  A
O3           Ni9   1.929   1_554  S
O3           C13   1.284       .  A
O4         Ni269   1.922       .  S
O4           C14   1.283       .  A
O5          Ni10   1.910       .  S
O5           C14   1.280       .  A
O6         Ni270   1.909   1_554  S
O6           C13   1.280       .  A
O7          Ni10   1.917       .  S
O7           C12   1.281       .  A
O8         Ni270   1.918   1_554  S
O8           C11   1.282       .  A
Ni9         O262   1.920       .  S
Ni9         O264   1.922       .  S
Ni9        Ni270   2.386       .  S
Ni10        O266   1.909       .  S
Ni10        O268   1.918       .  S
Ni10       Ni269   2.386       .  S
C11         C232   1.484       .  S
C12         C245   1.484       .  S
C13         C255   1.481       .  S
C14         C222   1.478       .  S
O15         Ni23   1.917       .  S
O15         C545   1.281   1_455  A
O16        Ni283   1.918   1_545  S
O16         C546   1.282   1_455  A
O17         Ni23   1.911   1_545  S
O17         C547   1.281   1_455  A
O18        Ni283   1.908       .  S
O18         C548   1.279   1_455  A
O19        Ni284   1.935       .  S
O19          C28   1.285       .  A
O20         Ni24   1.927   1_545  S
O20          C27   1.283       .  A
O21        Ni284   1.923   1_545  S
O21          C26   1.281       .  A
O22         Ni24   1.915       .  S
O22          C25   1.281       .  A
Ni23        O276   1.918   1_564  S
Ni23        O278   1.908   1_554  S
Ni23       Ni544   2.386   1_455  S
Ni24        O279   1.935   1_554  S
Ni24        O281   1.923   1_564  S
Ni24       Ni543   2.386       .  S
C25         O535   1.281       .  A
C25         C192   1.479       .  S
C26         O536   1.282       .  A
C26         C205   1.480       .  S
C27         O537   1.281       .  A
C27         C215   1.484       .  S
C28         O538   1.279       .  A
C28         C185   1.486       .  S
C29          C31   1.568       .  S
C29          C33   1.535       .  S
C29          C32   1.545       .  S
C29         C155   1.543       .  S
C30          C34   1.545       .  S
C30          C36   1.527       .  S
C30          C35   1.545       .  S
C30         C162   1.543       .  S
C31          C39   1.396       .  A
C31         C554   1.409       .  A
C32          C43   1.382       .  A
C32         C555   1.396       .  A
C33          C47   1.379       .  A
C33         C556   1.380       .  A
C34          C37   1.377       .  A
C34         C551   1.409   1_455  A
C35          C41   1.378       .  A
C35         C552   1.396   1_455  A
C36          C44   1.375       .  A
C36         C553   1.380   1_455  A
C37          H50   1.082       .  S
C37         N558   1.355   1_455  A
N38          C39   1.365       .  A
N38         C557   1.355       .  A
N38         C172   1.451       .  S
C39          H40   1.079       .  S
C41          H51   1.081       .  S
C41         N562   1.360   1_455  A
N42          C43   1.359       .  A
N42         C561   1.360       .  A
N42         C202   1.445       .  S
C43          H49   1.082       .  S
C44          H46   1.079       .  S
C44         N565   1.363   1_455  A
N45          C47   1.363       .  A
N45         C564   1.363       .  A
N45         C212   1.452       .  S
C47          H48   1.081       .  S
C52          C54   1.562       .  S
C52          C56   1.532       .  S
C52          C55   1.543       .  S
C52         C142   1.544       .  S
C53          C57   1.555       .  S
C53          C59   1.527       .  S
C53          C58   1.542       .  S
C53         C135   1.542       .  S
C54          C62   1.390       .  A
C54         C577   1.415   1_455  A
C55          C66   1.378       .  A
C55         C578   1.393   1_455  A
C56          C70   1.379       .  A
C56         C579   1.379   1_455  A
C57          C60   1.386       .  A
C57         C574   1.415       .  A
C58          C64   1.379       .  A
C58         C575   1.393       .  A
C59          C67   1.375       .  A
C59         C576   1.379       .  A
C60          H73   1.078       .  S
C60          N61   1.357       .  A
N61         C582   1.360       .  A
N61         C175   1.451       .  S
C62          H63   1.080       .  S
C62         N581   1.360       .  A
C64          H74   1.080       .  S
C64          N65   1.362       .  A
N65         C586   1.364       .  A
N65         C182   1.450       .  S
C66          H72   1.082       .  S
C66         N585   1.364       .  A
C67          H69   1.082       .  S
C67          N68   1.360       .  A
N68         C590   1.361       .  A
N68         C195   1.446       .  S
C70          H71   1.081       .  S
C70         N588   1.361       .  A
C75          C77   1.556       .  S
C75          C79   1.529       .  S
C75          C78   1.541       .  S
C75         C132   1.542       .  S
C76          C80   1.565       .  S
C76          C82   1.531       .  S
C76          C81   1.543       .  S
C76         C145   1.543       .  S
C77          C85   1.385       .  A
C77          C80   1.414       .  A
C78          C89   1.377       .  A
C78          C81   1.392       .  A
C79          C93   1.377       .  A
C79          C82   1.380       .  A
C80          C83   1.394       .  A
C81          C87   1.380       .  A
C82          C90   1.378       .  A
C83          H96   1.081       .  S
C83          N84   1.361       .  A
N84          C85   1.358       .  A
N84         C125   1.454       .  S
C85          H86   1.079       .  S
C87          H97   1.080       .  S
C87          N88   1.362       .  A
N88          C89   1.362       .  A
N88         C235   1.449       .  S
C89          H95   1.081       .  S
C90          H92   1.082       .  S
C90          N91   1.360       .  A
N91          C93   1.360       .  A
N91         C225   1.444       .  S
C93          H94   1.081       .  S
C98         C100   1.556       .  S
C98         C102   1.530       .  S
C98         C101   1.551       .  S
C98         C165   1.541       .  S
C99         C103   1.560       .  S
C99         C105   1.532       .  S
C99         C104   1.537       .  S
C99         C152   1.543       .  S
C100        C108   1.390       .  A
C100        C103   1.410       .  A
C101        C112   1.384       .  A
C101        C104   1.394       .  A
C102        C116   1.378       .  A
C102        C105   1.380       .  A
C103        C106   1.388       .  A
C104        C110   1.374       .  A
C105        C113   1.377       .  A
C106        H119   1.079       .  S
C106        N107   1.359       .  A
N107        C108   1.361       .  A
N107        C122   1.454       .  S
C108        H109   1.081       .  S
C110        H120   1.081       .  S
C110        N111   1.361       .  A
N111        C112   1.362       .  A
N111        C252   1.449       .  S
C112        H118   1.079       .  S
C113        H115   1.081       .  S
C113        N114   1.363       .  A
N114        C116   1.362       .  A
N114        C242   1.450       .  S
C116        H117   1.080       .  S
C121        C122   1.406       .  A
C121        C126   1.401   1_545  A
C121        H128   1.083       .  S
C122        C123   1.412       .  A
C123        C124   1.411   1_545  A
C123        F130   1.356       .  S
C124        C125   1.410       .  A
C124        H129   1.082       .  S
C125        C126   1.410       .  A
C126        F127   1.357       .  S
C131        C132   1.405       .  A
C131        C136   1.401       .  A
C131        H138   1.074       .  S
C132        C133   1.416       .  A
C133        C134   1.402       .  A
C133        F140   1.357       .  S
C134        C135   1.405       .  A
C134        H139   1.075       .  S
C135        C136   1.415       .  A
C136        F137   1.357       .  S
C141        C142   1.404       .  A
C141        C146   1.402       .  A
C141        H148   1.076       .  S
C142        C143   1.417       .  A
C143        C144   1.404       .  A
C143        F150   1.357       .  S
C144        C145   1.404       .  A
C144        H149   1.077       .  S
C145        C146   1.417       .  A
C146        F147   1.357       .  S
C151        C152   1.403       .  A
C151        C156   1.399       .  A
C151        H158   1.074       .  S
C152        C153   1.418       .  A
C153        C154   1.406       .  A
C153        F160   1.357       .  S
C154        C155   1.406       .  A
C154        H159   1.075       .  S
C155        C156   1.416       .  A
C156        F157   1.357       .  S
C161        C162   1.412       .  A
C161        C166   1.403       .  A
C161        H168   1.079       .  S
C162        C163   1.411       .  A
C163        C164   1.400       .  A
C163        F170   1.355       .  S
C164        C165   1.411       .  A
C164        H169   1.079       .  S
C165        C166   1.410       .  A
C166        F167   1.354       .  S
C171        C172   1.407       .  A
C171        C176   1.408       .  A
C171        H178   1.082       .  S
C172        C693   1.411       .  A
C173        C174   1.400       .  A
C173        C692   1.411       .  A
C173        F180   1.357       .  S
C174        C695   1.404       .  A
C174        H179   1.083       .  S
C175        C176   1.413       .  A
C175        C694   1.404       .  A
C176        F177   1.356       .  S
C181        C186   1.396       .  A
C181        C702   1.406       .  A
C181        H188   1.081       .  S
C182        C183   1.413       .  A
C182        C701   1.406       .  A
C183        C184   1.405       .  A
C183        F190   1.356       .  S
C184        C185   1.405       .  A
C184        H189   1.083       .  S
C185        C706   1.408       .  A
C186        C705   1.408       .  A
C186        F187   1.358       .  S
C191        C196   1.400       .  A
C191        C712   1.404   1_455  A
C191        H198   1.083       .  S
C192        C193   1.406       .  A
C192        C711   1.404       .  A
C193        C194   1.395       .  A
C193        F200   1.358       .  S
C194        C195   1.407       .  A
C194        H199   1.081       .  S
C195        C716   1.411       .  A
C196        C715   1.411       .  A
C196        F197   1.356       .  S
C201        C202   1.408       .  A
C201        C206   1.404       .  A
C201        H208   1.083       .  S
C202        C723   1.410       .  A
C203        C204   1.395       .  A
C203        C722   1.410   1_455  A
C203        F210   1.356       .  S
C204        C725   1.401   1_455  A
C204        H209   1.084       .  S
C205        C206   1.408       .  A
C205        C724   1.401       .  A
C206        F207   1.358       .  S
C211        C212   1.411       .  A
C211        C216   1.401       .  A
C211        H218   1.081       .  S
C212        C733   1.413       .  A
C213        C214   1.396       .  A
C213        C732   1.413   1_455  A
C213        F220   1.355       .  S
C214        C735   1.404   1_455  A
C214        H219   1.083       .  S
C215        C216   1.406       .  A
C215        C734   1.404       .  A
C216        F217   1.357       .  S
C221        C222   1.404       .  A
C221        C226   1.396       .  A
C221        H228   1.083       .  S
C222        C223   1.405       .  A
C223        C224   1.399       .  A
C223        F230   1.357       .  S
C224        C225   1.407       .  A
C224        H229   1.082       .  S
C225        C226   1.409       .  A
C226        F227   1.356       .  S
C231        C232   1.406       .  A
C231        C236   1.402       .  A
C231        H238   1.083       .  S
C232        C233   1.406       .  A
C233        C234   1.397       .  A
C233        F240   1.357       .  S
C234        C235   1.408       .  A
C234        H239   1.081       .  S
C235        C236   1.412       .  A
C236        F237   1.356       .  S
C241        C242   1.408       .  A
C241        C246   1.398       .  A
C241        H248   1.081       .  S
C242        C243   1.413       .  A
C243        C244   1.399       .  A
C243        F250   1.355       .  S
C244        C245   1.405       .  A
C244        H249   1.083       .  S
C245        C246   1.407       .  A
C246        F247   1.357       .  S
C251        C252   1.407       .  A
C251        C256   1.394       .  A
C251        H258   1.081       .  S
C252        C253   1.413       .  A
C253        C254   1.404       .  A
C253        F260   1.356       .  S
C254        C255   1.405       .  A
C254        H259   1.083       .  S
C255        C256   1.406       .  A
C256        F257   1.358       .  S
O261       Ni269   1.921       .  S
O261        C271   1.282       .  A
O262        C272   1.282       .  A
O263       Ni269   1.929       .  S
O263        C273   1.284       .  A
O264        C274   1.283       .  A
O265       Ni270   1.910       .  S
O265        C274   1.280       .  A
O266        C273   1.280       .  A
O267       Ni270   1.917       .  S
O267        C272   1.281       .  A
O268        C271   1.282       .  A
C271        C492   1.484       .  S
C272        C505   1.484       .  S
C273        C515   1.482       .  S
C274        C482   1.478       .  S
O275       Ni283   1.917       .  S
O275        C805   1.281   1_455  A
O276        C806   1.282   1_455  A
O277       Ni283   1.911   1_545  S
O277        C807   1.281   1_455  A
O278        C808   1.279   1_455  A
O279        C288   1.285       .  A
O280       Ni284   1.927   1_545  S
O280        C287   1.283       .  A
O281        C286   1.281       .  A
O282       Ni284   1.915       .  S
O282        C285   1.281       .  A
Ni283      Ni804   2.386   1_455  S
Ni284      Ni803   2.386       .  S
C285        O795   1.281       .  A
C285        C452   1.479       .  S
C286        O796   1.282       .  A
C286        C465   1.480       .  S
C287        O797   1.281       .  A
C287        C475   1.484       .  S
C288        O798   1.279       .  A
C288        C445   1.486       .  S
C289        C291   1.568       .  S
C289        C293   1.535       .  S
C289        C292   1.545       .  S
C289        C415   1.543       .  S
C290        C294   1.545       .  S
C290        C296   1.527       .  S
C290        C295   1.545       .  S
C290        C422   1.543       .  S
C291        C299   1.396       .  A
C291        C814   1.409       .  A
C292        C303   1.382       .  A
C292        C815   1.396       .  A
C293        C307   1.379       .  A
C293        C816   1.380       .  A
C294        C811   1.409   1_455  A
C294        C297   1.377       .  A
C295        C812   1.396   1_455  A
C295        C301   1.378       .  A
C296        C813   1.380   1_455  A
C296        C304   1.375       .  A
C297        H310   1.082       .  S
C297        N818   1.355   1_455  A
N298        C817   1.355       .  A
N298        C299   1.365       .  A
N298        C432   1.451       .  S
C299        H300   1.079       .  S
C301        H311   1.081       .  S
C301        N822   1.360   1_455  A
N302        C821   1.360       .  A
N302        C303   1.359       .  A
N302        C462   1.445       .  S
C303        H309   1.082       .  S
C304        H306   1.079       .  S
C304        N825   1.363   1_455  A
N305        C824   1.363       .  A
N305        C307   1.363       .  A
N305        C472   1.452       .  S
C307        H308   1.081       .  S
C312        C314   1.562       .  S
C312        C316   1.532       .  S
C312        C315   1.543       .  S
C312        C402   1.544       .  S
C313        C317   1.555       .  S
C313        C319   1.527       .  S
C313        C318   1.542       .  S
C313        C395   1.542       .  S
C314        C322   1.390       .  A
C314        C837   1.415   1_455  A
C315        C326   1.378       .  A
C315        C838   1.393   1_455  A
C316        C330   1.379       .  A
C316        C839   1.379   1_455  A
C317        C834   1.415       .  A
C317        C320   1.386       .  A
C318        C835   1.393       .  A
C318        C324   1.379       .  A
C319        C836   1.379       .  A
C319        C327   1.375       .  A
C320        H333   1.078       .  S
C320        N321   1.357       .  A
N321        C842   1.360       .  A
N321        C435   1.451       .  S
C322        H323   1.080       .  S
C322        N841   1.360       .  A
C324        H334   1.080       .  S
C324        N325   1.362       .  A
N325        C846   1.364       .  A
N325        C442   1.450       .  S
C326        H332   1.082       .  S
C326        N845   1.364       .  A
C327        H329   1.082       .  S
C327        N328   1.360       .  A
N328        C850   1.361       .  A
N328        C455   1.446       .  S
C330        H331   1.081       .  S
C330        N848   1.361       .  A
C335        C337   1.556       .  S
C335        C339   1.529       .  S
C335        C338   1.541       .  S
C335        C392   1.542       .  S
C336        C340   1.565       .  S
C336        C342   1.531       .  S
C336        C341   1.543       .  S
C336        C405   1.543       .  S
C337        C345   1.385       .  A
C337        C340   1.414       .  A
C338        C349   1.377       .  A
C338        C341   1.392       .  A
C339        C353   1.377       .  A
C339        C342   1.380       .  A
C340        C343   1.394       .  A
C341        C347   1.380       .  A
C342        C350   1.378       .  A
C343        H356   1.081       .  S
C343        N344   1.361       .  A
N344        C345   1.358       .  A
N344        C385   1.454       .  S
C345        H346   1.079       .  S
C347        H357   1.080       .  S
C347        N348   1.362       .  A
N348        C349   1.362       .  A
N348        C495   1.449       .  S
C349        H355   1.081       .  S
C350        H352   1.082       .  S
C350        N351   1.360       .  A
N351        C353   1.360       .  A
N351        C485   1.444       .  S
C353        H354   1.081       .  S
C358        C360   1.556       .  S
C358        C362   1.530       .  S
C358        C361   1.551       .  S
C358        C425   1.541       .  S
C359        C363   1.560       .  S
C359        C365   1.532       .  S
C359        C364   1.537       .  S
C359        C412   1.543       .  S
C360        C368   1.390       .  A
C360        C363   1.410       .  A
C361        C372   1.384       .  A
C361        C364   1.394       .  A
C362        C376   1.378       .  A
C362        C365   1.380       .  A
C363        C366   1.388       .  A
C364        C370   1.374       .  A
C365        C373   1.377       .  A
C366        H379   1.079       .  S
C366        N367   1.359       .  A
N367        C368   1.361       .  A
N367        C382   1.454       .  S
C368        H369   1.081       .  S
C370        H380   1.081       .  S
C370        N371   1.361       .  A
N371        C372   1.362       .  A
N371        C512   1.449       .  S
C372        H378   1.079       .  S
C373        H375   1.081       .  S
C373        N374   1.363       .  A
N374        C376   1.362       .  A
N374        C502   1.450       .  S
C376        H377   1.080       .  S
C381        C382   1.406       .  A
C381        C386   1.401   1_545  A
C381        H388   1.083       .  S
C382        C383   1.412       .  A
C383        C384   1.411   1_545  A
C383        F390   1.356       .  S
C384        C385   1.410       .  A
C384        H389   1.082       .  S
C385        C386   1.410       .  A
C386        F387   1.357       .  S
C391        C392   1.405       .  A
C391        C396   1.401       .  A
C391        H398   1.074       .  S
C392        C393   1.416       .  A
C393        C394   1.402       .  A
C393        F400   1.357       .  S
C394        C395   1.405       .  A
C394        H399   1.075       .  S
C395        C396   1.415       .  A
C396        F397   1.357       .  S
C401        C402   1.404       .  A
C401        C406   1.402       .  A
C401        H408   1.076       .  S
C402        C403   1.417       .  A
C403        C404   1.404       .  A
C403        F410   1.357       .  S
C404        C405   1.404       .  A
C404        H409   1.077       .  S
C405        C406   1.417       .  A
C406        F407   1.357       .  S
C411        C412   1.403       .  A
C411        C416   1.399       .  A
C411        H418   1.074       .  S
C412        C413   1.418       .  A
C413        C414   1.406       .  A
C413        F420   1.357       .  S
C414        C415   1.406       .  A
C414        H419   1.075       .  S
C415        C416   1.416       .  A
C416        F417   1.357       .  S
C421        C422   1.412       .  A
C421        C426   1.403       .  A
C421        H428   1.079       .  S
C422        C423   1.411       .  A
C423        C424   1.400       .  A
C423        F430   1.355       .  S
C424        C425   1.411       .  A
C424        H429   1.079       .  S
C425        C426   1.410       .  A
C426        F427   1.354       .  S
C431        C432   1.407       .  A
C431        C436   1.408       .  A
C431        H438   1.082       .  S
C432        C953   1.411       .  A
C433        C952   1.411       .  A
C433        C434   1.400       .  A
C433        F440   1.357       .  S
C434        C955   1.404       .  A
C434        H439   1.083       .  S
C435        C954   1.404       .  A
C435        C436   1.413       .  A
C436        F437   1.356       .  S
C441        C962   1.406       .  A
C441        C446   1.396       .  A
C441        H448   1.081       .  S
C442        C961   1.406       .  A
C442        C443   1.413       .  A
C443        C444   1.405       .  A
C443        F450   1.356       .  S
C444        C445   1.405       .  A
C444        H449   1.083       .  S
C445        C966   1.408       .  A
C446        C965   1.408       .  A
C446        F447   1.358       .  S
C451        C972   1.404   1_455  A
C451        C456   1.400       .  A
C451        H458   1.083       .  S
C452        C971   1.404       .  A
C452        C453   1.406       .  A
C453        C454   1.395       .  A
C453        F460   1.358       .  S
C454        C455   1.407       .  A
C454        H459   1.081       .  S
C455        C976   1.411       .  A
C456        C975   1.411       .  A
C456        F457   1.356       .  S
C461        C462   1.408       .  A
C461        C466   1.404       .  A
C461        H468   1.083       .  S
C462        C983   1.410       .  A
C463        C982   1.410   1_455  A
C463        C464   1.395       .  A
C463        F470   1.356       .  S
C464        C985   1.401   1_455  A
C464        H469   1.084       .  S
C465        C984   1.401       .  A
C465        C466   1.408       .  A
C466        F467   1.358       .  S
C471        C472   1.411       .  A
C471        C476   1.401       .  A
C471        H478   1.081       .  S
C472        C993   1.413       .  A
C473        C992   1.413   1_455  A
C473        C474   1.396       .  A
C473        F480   1.355       .  S
C474        C995   1.404   1_455  A
C474        H479   1.083       .  S
C475        C994   1.404       .  A
C475        C476   1.406       .  A
C476        F477   1.357       .  S
C481        C482   1.404       .  A
C481        C486   1.396       .  A
C481        H488   1.083       .  S
C482        C483   1.405       .  A
C483        C484   1.399       .  A
C483        F490   1.357       .  S
C484        C485   1.407       .  A
C484        H489   1.082       .  S
C485        C486   1.409       .  A
C486        F487   1.356       .  S
C491        C492   1.406       .  A
C491        C496   1.402       .  A
C491        H498   1.083       .  S
C492        C493   1.406       .  A
C493        C494   1.397       .  A
C493        F500   1.357       .  S
C494        C495   1.408       .  A
C494        H499   1.081       .  S
C495        C496   1.412       .  A
C496        F497   1.356       .  S
C501        C502   1.408       .  A
C501        C506   1.398       .  A
C501        H508   1.081       .  S
C502        C503   1.413       .  A
C503        C504   1.399       .  A
C503        F510   1.355       .  S
C504        C505   1.405       .  A
C504        H509   1.083       .  S
C505        C506   1.407       .  A
C506        F507   1.357       .  S
C511        C512   1.407       .  A
C511        C516   1.394       .  A
C511        H518   1.081       .  S
C512        C513   1.413       .  A
C513        C514   1.404       .  A
C513        F520   1.356       .  S
C514        C515   1.405       .  A
C514        H519   1.083       .  S
C515        C516   1.406       .  A
C516        F517   1.358       .  S
O521       Ni529   1.921   1_554  S
O521        C531   1.282       .  A
O522       Ni789   1.920       .  S
O522        C532   1.282       .  A
O523       Ni529   1.929   1_554  S
O523        C533   1.284       .  A
O524       Ni789   1.922       .  S
O524        C534   1.283       .  A
O525       Ni530   1.910       .  S
O525        C534   1.280       .  A
O526       Ni790   1.909   1_554  S
O526        C533   1.280       .  A
O527       Ni530   1.917       .  S
O527        C532   1.281       .  A
O528       Ni790   1.918   1_554  S
O528        C531   1.282       .  A
Ni529       O782   1.920       .  S
Ni529       O784   1.922       .  S
Ni529      Ni790   2.386       .  S
Ni530       O786   1.909       .  S
Ni530       O788   1.918       .  S
Ni530      Ni789   2.386       .  S
C531        C752   1.484       .  S
C532        C765   1.484       .  S
C533        C775   1.481       .  S
C534        C742   1.478       .  S
O535       Ni543   1.917       .  S
O536       Ni803   1.918   1_545  S
O537       Ni543   1.911   1_545  S
O538       Ni803   1.908       .  S
O539       Ni804   1.935       .  S
O539        C548   1.285       .  A
O540       Ni544   1.927   1_545  S
O540        C547   1.283       .  A
O541       Ni804   1.923   1_545  S
O541        C546   1.281       .  A
O542       Ni544   1.915       .  S
O542        C545   1.281       .  A
Ni543       O796   1.918   1_564  S
Ni543       O798   1.908   1_554  S
Ni544       O799   1.935   1_554  S
Ni544       O801   1.923   1_564  S
C545        C712   1.479       .  S
C546        C725   1.480       .  S
C547        C735   1.484       .  S
C548        C705   1.486   1_655  S
C549        C551   1.568       .  S
C549        C553   1.535       .  S
C549        C552   1.545       .  S
C549        C675   1.543       .  S
C550        C554   1.545       .  S
C550        C556   1.527       .  S
C550        C555   1.545       .  S
C550        C682   1.543       .  S
C551        C559   1.396       .  A
C552        C563   1.382       .  A
C553        C567   1.379       .  A
C554        C557   1.377       .  A
C555        C561   1.378       .  A
C556        C564   1.375       .  A
C557        H570   1.082       .  S
N558        C559   1.365       .  A
N558        C692   1.451   1_655  S
C559        H560   1.079       .  S
C561        H571   1.081       .  S
N562        C563   1.359       .  A
N562        C722   1.445       .  S
C563        H569   1.082       .  S
C564        H566   1.079       .  S
N565        C567   1.363       .  A
N565        C732   1.452       .  S
C567        H568   1.081       .  S
C572        C574   1.562       .  S
C572        C576   1.532       .  S
C572        C575   1.543       .  S
C572        C662   1.544       .  S
C573        C577   1.555       .  S
C573        C579   1.527       .  S
C573        C578   1.542       .  S
C573        C655   1.542       .  S
C574        C582   1.390       .  A
C575        C586   1.378       .  A
C576        C590   1.379       .  A
C577        C580   1.386       .  A
C578        C584   1.379       .  A
C579        C587   1.375       .  A
C580        H593   1.078       .  S
C580        N581   1.357   1_655  A
N581        C695   1.451       .  S
C582        H583   1.080       .  S
C584        H594   1.080       .  S
C584        N585   1.362   1_655  A
N585        C702   1.450       .  S
C586        H592   1.082       .  S
C587        H589   1.082       .  S
C587        N588   1.360   1_655  A
N588        C715   1.446       .  S
C590        H591   1.081       .  S
C595        C597   1.556       .  S
C595        C599   1.529       .  S
C595        C598   1.541       .  S
C595        C652   1.542       .  S
C596        C600   1.565       .  S
C596        C602   1.531       .  S
C596        C601   1.543       .  S
C596        C665   1.543       .  S
C597        C605   1.385       .  A
C597        C600   1.414       .  A
C598        C609   1.377       .  A
C598        C601   1.392       .  A
C599        C613   1.377       .  A
C599        C602   1.380       .  A
C600        C603   1.394       .  A
C601        C607   1.380       .  A
C602        C610   1.378       .  A
C603        H616   1.081       .  S
C603        N604   1.361       .  A
N604        C605   1.358       .  A
N604        C645   1.454       .  S
C605        H606   1.079       .  S
C607        H617   1.080       .  S
C607        N608   1.362       .  A
N608        C609   1.362       .  A
N608        C755   1.449       .  S
C609        H615   1.081       .  S
C610        H612   1.082       .  S
C610        N611   1.360       .  A
N611        C613   1.360       .  A
N611        C745   1.444       .  S
C613        H614   1.081       .  S
C618        C620   1.556       .  S
C618        C622   1.530       .  S
C618        C621   1.551       .  S
C618        C685   1.541       .  S
C619        C623   1.560       .  S
C619        C625   1.532       .  S
C619        C624   1.537       .  S
C619        C672   1.543       .  S
C620        C628   1.390       .  A
C620        C623   1.410       .  A
C621        C632   1.384       .  A
C621        C624   1.394       .  A
C622        C636   1.378       .  A
C622        C625   1.380       .  A
C623        C626   1.388       .  A
C624        C630   1.374       .  A
C625        C633   1.377       .  A
C626        H639   1.079       .  S
C626        N627   1.359       .  A
N627        C628   1.361       .  A
N627        C642   1.454       .  S
C628        H629   1.081       .  S
C630        H640   1.081       .  S
C630        N631   1.361       .  A
N631        C632   1.362       .  A
N631        C772   1.449       .  S
C632        H638   1.079       .  S
C633        H635   1.081       .  S
C633        N634   1.363       .  A
N634        C636   1.362       .  A
N634        C762   1.450       .  S
C636        H637   1.080       .  S
C641        C642   1.406       .  A
C641        C646   1.401   1_545  A
C641        H648   1.083       .  S
C642        C643   1.412       .  A
C643        C644   1.411   1_545  A
C643        F650   1.356       .  S
C644        C645   1.410       .  A
C644        H649   1.082       .  S
C645        C646   1.410       .  A
C646        F647   1.357       .  S
C651        C652   1.405       .  A
C651        C656   1.401       .  A
C651        H658   1.074       .  S
C652        C653   1.416       .  A
C653        C654   1.402       .  A
C653        F660   1.357       .  S
C654        C655   1.405       .  A
C654        H659   1.075       .  S
C655        C656   1.415       .  A
C656        F657   1.357       .  S
C661        C662   1.404       .  A
C661        C666   1.402       .  A
C661        H668   1.076       .  S
C662        C663   1.417       .  A
C663        C664   1.404       .  A
C663        F670   1.357       .  S
C664        C665   1.404       .  A
C664        H669   1.077       .  S
C665        C666   1.417       .  A
C666        F667   1.357       .  S
C671        C672   1.403       .  A
C671        C676   1.399       .  A
C671        H678   1.074       .  S
C672        C673   1.418       .  A
C673        C674   1.406       .  A
C673        F680   1.357       .  S
C674        C675   1.406       .  A
C674        H679   1.075       .  S
C675        C676   1.416       .  A
C676        F677   1.357       .  S
C681        C682   1.412       .  A
C681        C686   1.403       .  A
C681        H688   1.079       .  S
C682        C683   1.411       .  A
C683        C684   1.400       .  A
C683        F690   1.355       .  S
C684        C685   1.411       .  A
C684        H689   1.079       .  S
C685        C686   1.410       .  A
C686        F687   1.354       .  S
C691        C692   1.407   1_655  A
C691        C696   1.408       .  A
C691        H698   1.082       .  S
C693        C694   1.400       .  A
C693        F700   1.357       .  S
C694        H699   1.083       .  S
C695        C696   1.413   1_455  A
C696        F697   1.356       .  S
C701        C706   1.396       .  A
C701        H708   1.081       .  S
C702        C703   1.413   1_455  A
C703        C704   1.405       .  A
C703        F710   1.356       .  S
C704        C705   1.405   1_655  A
C704        H709   1.083       .  S
C706        F707   1.358       .  S
C711        C716   1.400       .  A
C711        H718   1.083       .  S
C712        C713   1.406       .  A
C713        C714   1.395       .  A
C713        F720   1.358       .  S
C714        C715   1.407   1_655  A
C714        H719   1.081       .  S
C716        F717   1.356       .  S
C721        C722   1.408       .  A
C721        C726   1.404       .  A
C721        H728   1.083       .  S
C723        C724   1.395       .  A
C723        F730   1.356       .  S
C724        H729   1.084       .  S
C725        C726   1.408       .  A
C726        F727   1.358       .  S
C731        C732   1.411       .  A
C731        C736   1.401       .  A
C731        H738   1.081       .  S
C733        C734   1.396       .  A
C733        F740   1.355       .  S
C734        H739   1.083       .  S
C735        C736   1.406       .  A
C736        F737   1.357       .  S
C741        C742   1.404       .  A
C741        C746   1.396       .  A
C741        H748   1.083       .  S
C742        C743   1.405       .  A
C743        C744   1.399       .  A
C743        F750   1.357       .  S
C744        C745   1.407       .  A
C744        H749   1.082       .  S
C745        C746   1.409       .  A
C746        F747   1.356       .  S
C751        C752   1.406       .  A
C751        C756   1.402       .  A
C751        H758   1.083       .  S
C752        C753   1.406       .  A
C753        C754   1.397       .  A
C753        F760   1.357       .  S
C754        C755   1.408       .  A
C754        H759   1.081       .  S
C755        C756   1.412       .  A
C756        F757   1.356       .  S
C761        C762   1.408       .  A
C761        C766   1.398       .  A
C761        H768   1.081       .  S
C762        C763   1.413       .  A
C763        C764   1.399       .  A
C763        F770   1.355       .  S
C764        C765   1.405       .  A
C764        H769   1.083       .  S
C765        C766   1.407       .  A
C766        F767   1.357       .  S
C771        C772   1.407       .  A
C771        C776   1.394       .  A
C771        H778   1.081       .  S
C772        C773   1.413       .  A
C773        C774   1.404       .  A
C773        F780   1.356       .  S
C774        C775   1.405       .  A
C774        H779   1.083       .  S
C775        C776   1.406       .  A
C776        F777   1.358       .  S
O781       Ni789   1.921       .  S
O781        C791   1.282       .  A
O782        C792   1.282       .  A
O783       Ni789   1.929       .  S
O783        C793   1.284       .  A
O784        C794   1.283       .  A
O785       Ni790   1.910       .  S
O785        C794   1.280       .  A
O786        C793   1.280       .  A
O787       Ni790   1.917       .  S
O787        C792   1.281       .  A
O788        C791   1.282       .  A
C791       C1012   1.484       .  S
C792       C1025   1.484       .  S
C793       C1035   1.482       .  S
C794       C1002   1.478       .  S
O795       Ni803   1.917       .  S
O797       Ni803   1.911   1_545  S
O799        C808   1.285       .  A
O800       Ni804   1.927   1_545  S
O800        C807   1.283       .  A
O801        C806   1.281       .  A
O802       Ni804   1.915       .  S
O802        C805   1.281       .  A
C805        C972   1.479       .  S
C806        C985   1.480       .  S
C807        C995   1.484       .  S
C808        C965   1.486   1_655  S
C809        C811   1.568       .  S
C809        C813   1.535       .  S
C809        C812   1.545       .  S
C809        C935   1.543       .  S
C810        C814   1.545       .  S
C810        C816   1.527       .  S
C810        C815   1.545       .  S
C810        C942   1.543       .  S
C811        C819   1.396       .  A
C812        C823   1.382       .  A
C813        C827   1.379       .  A
C814        C817   1.377       .  A
C815        C821   1.378       .  A
C816        C824   1.375       .  A
C817        H830   1.082       .  S
N818        C819   1.365       .  A
N818        C952   1.451   1_655  S
C819        H820   1.079       .  S
C821        H831   1.081       .  S
N822        C823   1.359       .  A
N822        C982   1.445       .  S
C823        H829   1.082       .  S
C824        H826   1.079       .  S
N825        C827   1.363       .  A
N825        C992   1.452       .  S
C827        H828   1.081       .  S
C832        C834   1.562       .  S
C832        C836   1.532       .  S
C832        C835   1.543       .  S
C832        C922   1.544       .  S
C833        C837   1.555       .  S
C833        C839   1.527       .  S
C833        C838   1.542       .  S
C833        C915   1.542       .  S
C834        C842   1.390       .  A
C835        C846   1.378       .  A
C836        C850   1.379       .  A
C837        C840   1.386       .  A
C838        C844   1.379       .  A
C839        C847   1.375       .  A
C840        H853   1.078       .  S
C840        N841   1.357   1_655  A
N841        C955   1.451       .  S
C842        H843   1.080       .  S
C844        H854   1.080       .  S
C844        N845   1.362   1_655  A
N845        C962   1.450       .  S
C846        H852   1.082       .  S
C847        H849   1.082       .  S
C847        N848   1.360   1_655  A
N848        C975   1.446       .  S
C850        H851   1.081       .  S
C855        C857   1.556       .  S
C855        C859   1.529       .  S
C855        C858   1.541       .  S
C855        C912   1.542       .  S
C856        C860   1.565       .  S
C856        C862   1.531       .  S
C856        C861   1.543       .  S
C856        C925   1.543       .  S
C857        C865   1.385       .  A
C857        C860   1.414       .  A
C858        C869   1.377       .  A
C858        C861   1.392       .  A
C859        C873   1.377       .  A
C859        C862   1.380       .  A
C860        C863   1.394       .  A
C861        C867   1.380       .  A
C862        C870   1.378       .  A
C863        H876   1.081       .  S
C863        N864   1.361       .  A
N864        C865   1.358       .  A
N864        C905   1.454       .  S
C865        H866   1.079       .  S
C867        H877   1.080       .  S
C867        N868   1.362       .  A
N868        C869   1.362       .  A
N868       C1015   1.449       .  S
C869        H875   1.081       .  S
C870        H872   1.082       .  S
C870        N871   1.360       .  A
N871        C873   1.360       .  A
N871       C1005   1.444       .  S
C873        H874   1.081       .  S
C878        C880   1.556       .  S
C878        C882   1.530       .  S
C878        C881   1.551       .  S
C878        C945   1.541       .  S
C879        C883   1.560       .  S
C879        C885   1.532       .  S
C879        C884   1.537       .  S
C879        C932   1.543       .  S
C880        C888   1.390       .  A
C880        C883   1.410       .  A
C881        C892   1.384       .  A
C881        C884   1.394       .  A
C882        C896   1.378       .  A
C882        C885   1.380       .  A
C883        C886   1.388       .  A
C884        C890   1.374       .  A
C885        C893   1.377       .  A
C886        H899   1.079       .  S
C886        N887   1.359       .  A
N887        C888   1.361       .  A
N887        C902   1.454       .  S
C888        H889   1.081       .  S
C890        H900   1.081       .  S
C890        N891   1.361       .  A
N891        C892   1.362       .  A
N891       C1032   1.449       .  S
C892        H898   1.079       .  S
C893        H895   1.081       .  S
C893        N894   1.363       .  A
N894        C896   1.362       .  A
N894       C1022   1.450       .  S
C896        H897   1.080       .  S
C901        C902   1.406       .  A
C901        C906   1.401   1_545  A
C901        H908   1.083       .  S
C902        C903   1.412       .  A
C903        C904   1.411   1_545  A
C903        F910   1.356       .  S
C904        C905   1.410       .  A
C904        H909   1.082       .  S
C905        C906   1.410       .  A
C906        F907   1.357       .  S
C911        C912   1.405       .  A
C911        C916   1.401       .  A
C911        H918   1.074       .  S
C912        C913   1.416       .  A
C913        C914   1.402       .  A
C913        F920   1.357       .  S
C914        C915   1.405       .  A
C914        H919   1.075       .  S
C915        C916   1.415       .  A
C916        F917   1.357       .  S
C921        C922   1.404       .  A
C921        C926   1.402       .  A
C921        H928   1.076       .  S
C922        C923   1.417       .  A
C923        C924   1.404       .  A
C923        F930   1.357       .  S
C924        C925   1.404       .  A
C924        H929   1.077       .  S
C925        C926   1.417       .  A
C926        F927   1.357       .  S
C931        C932   1.403       .  A
C931        C936   1.399       .  A
C931        H938   1.074       .  S
C932        C933   1.418       .  A
C933        C934   1.406       .  A
C933        F940   1.357       .  S
C934        C935   1.406       .  A
C934        H939   1.075       .  S
C935        C936   1.416       .  A
C936        F937   1.357       .  S
C941        C942   1.412       .  A
C941        C946   1.403       .  A
C941        H948   1.079       .  S
C942        C943   1.411       .  A
C943        C944   1.400       .  A
C943        F950   1.355       .  S
C944        C945   1.411       .  A
C944        H949   1.079       .  S
C945        C946   1.410       .  A
C946        F947   1.354       .  S
C951        C952   1.407   1_655  A
C951        C956   1.408       .  A
C951        H958   1.082       .  S
C953        C954   1.400       .  A
C953        F960   1.357       .  S
C954        H959   1.083       .  S
C955        C956   1.413   1_455  A
C956        F957   1.356       .  S
C961        C966   1.396       .  A
C961        H968   1.081       .  S
C962        C963   1.413   1_455  A
C963        C964   1.405       .  A
C963        F970   1.356       .  S
C964        C965   1.405   1_655  A
C964        H969   1.083       .  S
C966        F967   1.358       .  S
C971        C976   1.400       .  A
C971        H978   1.083       .  S
C972        C973   1.406       .  A
C973        C974   1.395       .  A
C973        F980   1.358       .  S
C974        C975   1.407   1_655  A
C974        H979   1.081       .  S
C976        F977   1.356       .  S
C981        C982   1.408       .  A
C981        C986   1.404       .  A
C981        H988   1.083       .  S
C983        C984   1.395       .  A
C983        F990   1.356       .  S
C984        H989   1.084       .  S
C985        C986   1.408       .  A
C986        F987   1.358       .  S
C991        C992   1.411       .  A
C991        C996   1.401       .  A
C991        H998   1.081       .  S
C993        C994   1.396       .  A
C993       F1000   1.355       .  S
C994        H999   1.083       .  S
C995        C996   1.406       .  A
C996        F997   1.357       .  S
C1001      C1002   1.404       .  A
C1001      C1006   1.396       .  A
C1001      H1008   1.083       .  S
C1002      C1003   1.405       .  A
C1003      C1004   1.399       .  A
C1003      F1010   1.357       .  S
C1004      C1005   1.407       .  A
C1004      H1009   1.082       .  S
C1005      C1006   1.409       .  A
C1006      F1007   1.356       .  S
C1011      C1012   1.406       .  A
C1011      C1016   1.402       .  A
C1011      H1018   1.083       .  S
C1012      C1013   1.406       .  A
C1013      C1014   1.397       .  A
C1013      F1020   1.357       .  S
C1014      C1015   1.408       .  A
C1014      H1019   1.081       .  S
C1015      C1016   1.412       .  A
C1016      F1017   1.356       .  S
C1021      C1022   1.408       .  A
C1021      C1026   1.398       .  A
C1021      H1028   1.081       .  S
C1022      C1023   1.413       .  A
C1023      C1024   1.399       .  A
C1023      F1030   1.355       .  S
C1024      C1025   1.405       .  A
C1024      H1029   1.083       .  S
C1025      C1026   1.407       .  A
C1026      F1027   1.357       .  S
C1031      C1032   1.407       .  A
C1031      C1036   1.394       .  A
C1031      H1038   1.081       .  S
C1032      C1033   1.413       .  A
C1033      C1034   1.404       .  A
C1033      F1040   1.356       .  S
C1034      C1035   1.405       .  A
C1034      H1039   1.083       .  S
C1035      C1036   1.406       .  A
C1036      F1037   1.358       .  S
