geometry optimzed in LAMMPS
_audit_creation_date              2020-11-30 
_audit_creation_method            'lammps2cif' 
_symmetry_space_group_name_H-M    'P1' 
_symmetry_Int_Tables_number       1 
_symmetry_cell_setting            triclinic 
loop_ 
_symmetry_equiv_pos_as_xyz 
  x,y,z 
_cell_length_a                    63.0672281 
_cell_length_b                    63.067072755552616 
_cell_length_c                    63.068626988314115 
_cell_angle_alpha                 90.000842281192 
_cell_angle_beta                  90.00039504696568 
_cell_angle_gamma                 90.00192385391061 
loop_ 
_atom_site_label 
_atom_site_type_symbol 
_atom_site_fract_x 
_atom_site_fract_y 
_atom_site_fract_z 
_atom_site_charge 
Zn1        Zn  0.48213898  0.48194277  0.98248444     1.49700
Zn2        Zn  0.52908913  0.48864995  0.99760139     1.49400
Zn3        Zn  0.49753194  0.52855127  0.98943522     1.49100
Zn4        Zn  0.48917630  0.49687458  0.02936911     1.49500
O5          O  0.49976799  0.49926715  0.00003048    -1.79800
O6          O  0.49773121  0.45944508  0.96834083    -0.70400
O7          O  0.54853619  0.51262998  0.98911070    -0.70200
O8          O  0.47758761  0.53139066  0.96341667    -0.69800
O9          O  0.53157354  0.46267685  0.97755863    -0.70400
O10         O  0.46812567  0.49765653  0.95999665    -0.70000
O11         O  0.52675342  0.53991293  0.98355797    -0.70600
O12         O  0.48320177  0.52613539  0.04082026    -0.70000
O13         O  0.54065051  0.48286140  0.02684787    -0.70800
O14         O  0.48925017  0.54783584  0.01355650    -0.70200
O15         O  0.51344397  0.48868499  0.04867983    -0.70600
O16         O  0.46316833  0.47670070  0.03199144    -0.70500
O17         O  0.45958430  0.46789170  0.99808689    -0.70300
C18         C  0.51675775  0.45336005  0.96732642     0.81500
C19         C  0.54528937  0.53221855  0.98552036     0.82000
C20         C  0.46728161  0.51670875  0.95397960     0.80900
C21         C  0.48542775  0.54465146  0.03311181     0.81300
C22         C  0.53303052  0.48504057  0.04540526     0.82400
C23         C  0.45365662  0.46666618  0.01714725     0.81500
Zn24       Zn  0.50400238  0.00934763  0.46872806     1.49700
Zn25       Zn  0.46882682  0.00878991  0.50646991     1.49400
Zn26       Zn  0.50543132  0.97226989  0.50449828     1.49100
Zn27       Zn  0.51646567  0.01908888  0.51597274     1.49500
O28         O  0.49837321  0.00211279  0.49860197    -1.79800
O29         O  0.47635340  0.01662678  0.45425454    -0.70400
O30         O  0.45360496  0.98171297  0.51411746    -0.70200
O31         O  0.51354607  0.95746382  0.47738281    -0.69800
O32         O  0.45232322  0.01676671  0.48019701    -0.70400
O33         O  0.51182369  0.98274558  0.45272643    -0.70000
O34         O  0.47852171  0.95673752  0.51149042    -0.70600
O35         O  0.53534965  0.00258171  0.53381944    -0.70000
O36         O  0.46670845  0.03163504  0.53011916    -0.70800
O37         O  0.52837818  0.96863284  0.52773647    -0.70200
O38         O  0.50103096  0.03750533  0.53530960    -0.70600
O39         O  0.53459471  0.03768946  0.49956227    -0.70500
O40         O  0.52683061  0.03289654  0.46553986    -0.70300
C41         C  0.45723559  0.01768261  0.46064143     0.81500
C42         C  0.45928421  0.96234957  0.51373308     0.82000
C43         C  0.51387445  0.96340683  0.45810938     0.80900
C44         C  0.53862852  0.98318955  0.53739939     0.81300
C45         C  0.48185234  0.04121501  0.53960478     0.82400
C46         C  0.53736275  0.04206124  0.48025036     0.81500
Zn47       Zn  0.01862192  0.51662018  0.51984766     1.49700
Zn48       Zn  0.00613683  0.50709305  0.47271227     1.49400
Zn49       Zn  0.00960404  0.46930201  0.50777679     1.49100
Zn50       Zn  0.97148145  0.50392867  0.51091365     1.49500
O51         O  0.00116797  0.49894988  0.50249546    -1.79800
O52         O  0.03532975  0.53677979  0.50369375    -0.70400
O53         O  0.01389031  0.48094934  0.45579948    -0.70200
O54         O  0.03433786  0.46658895  0.52927666    -0.69800
O55         O  0.02837611  0.53127998  0.46962618    -0.70400
O56         O  0.03911766  0.50072089  0.53645092    -0.70000
O57         O  0.01650076  0.45524321  0.47994110    -0.70600
O58         O  0.95773214  0.47596231  0.51784859    -0.70000
O59         O  0.97812209  0.51457699  0.45909790    -0.70800
O60         O  0.98389523  0.45222145  0.51620210    -0.70200
O61         O  0.95437993  0.51237280  0.48522029    -0.70600
O62         O  0.96858025  0.52555247  0.53546047    -0.70500
O63         O  0.00259769  0.53336596  0.54010083    -0.70300
C64         C  0.03817137  0.54114324  0.48439295     0.81500
C65         C  0.01619895  0.46151749  0.46077144     0.82000
C66         C  0.04403899  0.48150481  0.53897557     0.80900
C67         C  0.96435610  0.45691179  0.51804138     0.81300
C68         C  0.95905447  0.51469325  0.46572556     0.82400
C69         C  0.98333902  0.53566315  0.54496919     0.81500
Zn70       Zn  0.01051552  0.96986412  0.00387511     1.49700
Zn71       Zn  0.01975417  0.01684464  0.01630983     1.49400
Zn72       Zn  0.00806811  0.00788087  0.96886692     1.49100
Zn73       Zn  0.97266411  0.00515080  0.00629292     1.49500
O74         O  0.00244224  0.99960158  0.99849254    -1.79800
O75         O  0.03457366  0.96680199  0.02626504    -0.70400
O76         O  0.03682157  0.03689636  0.00061282    -0.70200
O77         O  0.01694099  0.98204750  0.95224424    -0.69800
O78         O  0.03971809  0.00088108  0.03330239    -0.70400
O79         O  0.01840974  0.95601264  0.97615143    -0.70000
O80         O  0.02994473  0.03238703  0.96638832    -0.70600
O81         O  0.95610713  0.01368070  0.98022431    -0.70000
O82         O  0.00370190  0.03366625  0.03631004    -0.70800
O83         O  0.98027426  0.01475499  0.95443425    -0.70200
O84         O  0.96960440  0.02691603  0.03082869    -0.70600
O85         O  0.95845559  0.97737347  0.01307410    -0.70500
O86         O  0.98421044  0.95317018  0.01139139    -0.70300
C87         C  0.04429459  0.98163520  0.03608916     0.81500
C88         C  0.03971913  0.04178197  0.98145958     0.82000
C89         C  0.01900628  0.96256321  0.95707442     0.80900
C90         C  0.96110828  0.01536277  0.96074202     0.81300
C91         C  0.98443583  0.03653577  0.04074384     0.82400
C92         C  0.96474356  0.95820143  0.01323630     0.81500
Zn93       Zn  0.51699202  0.73201548  0.23174014     1.49700
Zn94       Zn  0.50313845  0.74102209  0.27856321     1.49400
Zn95       Zn  0.50833645  0.77920372  0.24439995     1.49100
Zn96       Zn  0.46979387  0.74504478  0.23935944     1.49500
O97         O  0.49924049  0.74961159  0.24879707    -1.79800
O98         O  0.53347781  0.71202239  0.24823825    -0.70400
O99         O  0.51063092  0.76666462  0.29610275    -0.70200
O100        O  0.53320141  0.78204695  0.22307951    -0.69800
O101        O  0.52516876  0.71689408  0.28210511    -0.70400
O102        O  0.53763422  0.74797668  0.21543842    -0.70000
O103        O  0.51507708  0.79268423  0.27259957    -0.70600
O104        O  0.45655489  0.77342594  0.23300868    -0.70000
O105        O  0.47474422  0.73371462  0.29121281    -0.70800
O106        O  0.48299434  0.79673323  0.23610463    -0.70200
O107        O  0.45183530  0.73618716  0.26437588    -0.70600
O108        O  0.46750776  0.72397829  0.21407140    -0.70500
O109        O  0.50149615  0.71533221  0.21103440    -0.70300
C110        C  0.53565103  0.70743139  0.26757250     0.81500
C111        C  0.51378336  0.78607218  0.29161618     0.82000
C112        C  0.54273984  0.76716965  0.21316807     0.80900
C113        C  0.46344707  0.79237904  0.23366714     0.81300
C114        C  0.45590394  0.73375999  0.28399950     0.82400
C115        C  0.48246043  0.71355140  0.20518687     0.81500
Zn116      Zn  0.48206749  0.26988158  0.76752738     1.49700
Zn117      Zn  0.49474394  0.26067587  0.72033680     1.49400
Zn118      Zn  0.52897997  0.25595006  0.75858025     1.49100
Zn119      Zn  0.48979693  0.22257283  0.75476900     1.49500
O120        O  0.49917655  0.25200557  0.75001120    -1.79800
O121        O  0.46657898  0.29108690  0.75150134    -0.70400
O122        O  0.52303008  0.26708618  0.70679511    -0.70200
O123        O  0.53230106  0.27662434  0.78399844    -0.69800
O124        O  0.47356087  0.28568404  0.71740128    -0.70400
O125        O  0.49849102  0.28536055  0.78856591    -0.70000
O126        O  0.54647604  0.26456216  0.73313919    -0.70600
O127        O  0.51515666  0.20447741  0.76189622    -0.70000
O128        O  0.48616578  0.23511624  0.70318668    -0.70800
O129        O  0.54199527  0.22735424  0.76442458    -0.70200
O130        O  0.48175719  0.20924448  0.72689565    -0.70600
O131        O  0.46582338  0.22015274  0.77712345    -0.70500
O132        O  0.46084066  0.25436666  0.78377327    -0.70300
C133        C  0.46411300  0.29578799  0.73222031     0.81500
C134        C  0.54203439  0.26680229  0.71357340     0.82000
C135        C  0.51775525  0.28683428  0.79375828     0.80900
C136        C  0.53483314  0.20850637  0.76378136     0.81300
C137        C  0.48283086  0.21577125  0.70783888     0.82400
C138        C  0.45615271  0.23514182  0.78674023     0.81500
Zn139      Zn  0.24144547  0.50544348  0.78156177     1.49700
Zn140      Zn  0.23137109  0.51838421  0.73474622     1.49400
Zn141      Zn  0.27888683  0.51045810  0.74643542     1.49100
Zn142      Zn  0.24526579  0.47148961  0.74276848     1.49500
O143        O  0.24954630  0.50113449  0.75168611    -1.79800
O144        O  0.21689770  0.52695799  0.78520453    -0.70400
O145        O  0.24653234  0.53947294  0.71817872    -0.70200
O146        O  0.29285398  0.51749571  0.77435052    -0.69800
O147        O  0.21080838  0.53401217  0.75125549    -0.70400
O148        O  0.26745886  0.51323003  0.79859401    -0.70000
O149        O  0.28084480  0.53511833  0.72470711    -0.70600
O150        O  0.27370336  0.45834729  0.73639050    -0.70000
O151        O  0.21511550  0.50230281  0.71420554    -0.70800
O152        O  0.29660994  0.48524988  0.73779766    -0.70200
O153        O  0.22427336  0.46849773  0.71767510    -0.70600
O154        O  0.23635971  0.45400804  0.76795675    -0.70500
O155        O  0.23421208  0.47723988  0.79455158    -0.70300
C156        C  0.20655785  0.53648790  0.77062231     0.81500
C157        C  0.26563818  0.54455749  0.71519140     0.82000
C158        C  0.28675413  0.51635468  0.79355868     0.80900
C159        C  0.29254140  0.46555992  0.73604802     0.81300
C160        C  0.21363224  0.48316798  0.70862309     0.82400
C161        C  0.23404448  0.45833652  0.78752314     0.81500
Zn162      Zn  0.36011727  0.39435204  0.89303251     1.49700
Zn163      Zn  0.36043404  0.35796285  0.85630895     1.49400
Zn164      Zn  0.39900972  0.39239853  0.85912456     1.49100
Zn165      Zn  0.39430928  0.35568219  0.89522162     1.49500
O166        O  0.37849329  0.37508625  0.87589490    -1.79800
O167        O  0.32853766  0.38868509  0.88700407    -0.70400
O168        O  0.36705655  0.36523034  0.82496498    -0.70200
O169        O  0.39433871  0.42436198  0.86461769    -0.69800
O170        O  0.32876516  0.36376742  0.86197272    -0.70400
O171        O  0.36659355  0.42573919  0.88643735    -0.70000
O172        O  0.39406014  0.38792251  0.82713354    -0.70600
O173        O  0.42650449  0.35932458  0.89122529    -0.70000
O174        O  0.36523514  0.32594925  0.86112483    -0.70800
O175        O  0.43009054  0.38432101  0.86651215    -0.70200
O176        O  0.38710657  0.32435864  0.88882126    -0.70600
O177        O  0.38728322  0.36226079  0.92655465    -0.70500
O178        O  0.36479275  0.38945322  0.92492960    -0.70300
C179        C  0.31873464  0.37612715  0.87450390     0.81500
C180        C  0.38084157  0.37720414  0.81613653     0.82000
C181        C  0.38069690  0.43497917  0.87520351     0.80900
C182        C  0.43819125  0.37100021  0.87950207     0.81300
C183        C  0.37576376  0.31522974  0.87471883     0.82400
C184        C  0.37565933  0.37615549  0.93565432     0.81500
N185        N  0.25382110  0.37381275  0.87397898     0.00900
C186        C  0.24064533  0.38339578  0.85988513     0.03400
C187        C  0.21983505  0.37776082  0.86345372    -0.19400
C188        C  0.21993599  0.36423228  0.88041367    -0.19600
C189        C  0.24080881  0.36211313  0.88657879     0.03300
H190        H  0.20601453  0.38323703  0.85486568     0.17100
H191        H  0.20620939  0.35690933  0.88767191     0.17200
N192        N  0.38212504  0.49971111  0.86929390     0.00900
C193        C  0.39687248  0.51349697  0.87691528     0.03400
C194        C  0.39356310  0.53364648  0.86912140    -0.19400
C195        C  0.37610812  0.53252515  0.85629213    -0.19600
C196        C  0.36936424  0.51173353  0.85671998     0.03300
H197        H  0.40252880  0.54779498  0.87289031     0.17100
H198        H  0.36876692  0.54560495  0.84793916     0.17200
N199        N  0.50199557  0.36211631  0.88806507     0.00900
C200        C  0.51396418  0.37045391  0.90394852     0.03400
C201        C  0.53351672  0.36074917  0.90500375    -0.19400
C202        C  0.53393092  0.34594777  0.88916093    -0.19600
C203        C  0.51461444  0.34714919  0.87899201     0.03300
H204        H  0.54646979  0.36471765  0.91555187     0.17100
H205        H  0.54727245  0.33602926  0.88487378     0.17200
N206        N  0.38460445  0.38556430  0.75178974     0.00900
C207        C  0.37428321  0.40054487  0.74021055     0.03400
C208        C  0.38173812  0.40113256  0.71966698    -0.19400
C209        C  0.39716004  0.38595497  0.71824899    -0.19600
C210        C  0.39856422  0.37664529  0.73797123     0.03300
H211        H  0.37604920  0.41107432  0.70687858     0.17100
H212        H  0.40594828  0.38166292  0.70413792     0.17200
N213        N  0.37188678  0.25030535  0.87363199     0.00900
C214        C  0.35889579  0.23803337  0.88568329     0.03400
C215        C  0.36170921  0.21681980  0.88123322    -0.19400
C216        C  0.37695238  0.21571010  0.86584497    -0.19600
C217        C  0.38288514  0.23629111  0.86146178     0.03300
H218        H  0.35340827  0.20357032  0.88832715     0.17100
H219        H  0.38296255  0.20141353  0.85848103     0.17200
N220        N  0.37255191  0.37753048  0.00057123     0.00900
C221        C  0.38252217  0.39079484  0.01437827     0.03400
C222        C  0.37790657  0.38548456  0.03507297    -0.19400
C223        C  0.36453552  0.36842724  0.03426015    -0.19600
C224        C  0.36149621  0.36390372  0.01309680     0.03300
H225        H  0.38362016  0.39327141  0.04926700     0.17100
H226        H  0.35765606  0.36022944  0.04768409     0.17200
Zn227      Zn  0.27805509  0.24201959  0.00619722     1.49700
Zn228      Zn  0.23074445  0.23336941  0.01849204     1.49400
Zn229      Zn  0.24380131  0.28046256  0.01012324     1.49100
Zn230      Zn  0.24006796  0.24623039  0.97159726     1.49500
O231        O  0.24848133  0.25082419  0.00130230    -1.79800
O232        O  0.28059915  0.21736647  0.02771019    -0.70400
O233        O  0.21525810  0.24920046  0.03980051    -0.70200
O234        O  0.27194565  0.29374066  0.01711203    -0.69800
O235        O  0.24638356  0.21199644  0.03407401    -0.70400
O236        O  0.29556105  0.26755986  0.01439269    -0.70000
O237        O  0.22249660  0.28331803  0.03507524    -0.70600
O238        O  0.23416035  0.27459333  0.95819014    -0.70000
O239        O  0.20940095  0.21811470  0.00247098    -0.70800
O240        O  0.23575126  0.29808971  0.98458416    -0.70200
O241        O  0.21471717  0.22547078  0.96846274    -0.70600
O242        O  0.26556215  0.23718800  0.95448015    -0.70500
O243        O  0.29160881  0.23472560  0.97827313    -0.70300
C244        C  0.26560998  0.20731629  0.03691533     0.81500
C245        C  0.21291796  0.26838833  0.04488107     0.82000
C246        C  0.29097410  0.28706633  0.01680422     0.80900
C247        C  0.23412273  0.29359612  0.96496826     0.81300
C248        C  0.20457659  0.21593711  0.98319523     0.82400
C249        C  0.28502760  0.23474532  0.95921313     0.81500
Zn250      Zn  0.73319753  0.51936189  0.23239736     1.49700
Zn251      Zn  0.78030543  0.50865598  0.24411048     1.49400
Zn252      Zn  0.74302944  0.50750155  0.27967605     1.49100
Zn253      Zn  0.74377261  0.47203003  0.24203554     1.49500
O254        O  0.75038967  0.50157636  0.24986207    -1.79800
O255        O  0.74959749  0.53866690  0.21500598    -0.70400
O256        O  0.79520184  0.51586174  0.27160289    -0.70200
O257        O  0.71991588  0.53072904  0.28278064    -0.69800
O258        O  0.78362824  0.53248969  0.22159421    -0.70400
O259        O  0.71424776  0.53725187  0.24865562    -0.70000
O260        O  0.76965396  0.51463626  0.29599993    -0.70600
O261        O  0.73563977  0.45586073  0.26836981    -0.70000
O262        O  0.79585812  0.48185744  0.23613952    -0.70800
O263        O  0.73478630  0.48017598  0.29404855    -0.70200
O264        O  0.77085313  0.45688654  0.23430062    -0.70600
O265        O  0.72080766  0.46960964  0.21855428    -0.70500
O266        O  0.71504332  0.50385716  0.21291517    -0.70300
C267        C  0.76895347  0.54256520  0.21188760     0.81500
C268        C  0.78909881  0.51622949  0.29084127     0.82000
C269        C  0.71031364  0.54066314  0.26795071     0.80900
C270        C  0.73395711  0.46100639  0.28780577     0.81300
C271        C  0.79021311  0.46258825  0.23407700     0.82400
C272        C  0.71124978  0.48464347  0.20889292     0.81500
Zn273      Zn  0.26719563  0.76855942  0.48314431     1.49700
Zn274      Zn  0.22005329  0.75956505  0.49600245     1.49400
Zn275      Zn  0.25477914  0.72143302  0.49210054     1.49100
Zn276      Zn  0.25833609  0.75564424  0.53038084     1.49500
O277        O  0.24976768  0.75104747  0.50068161    -1.79800
O278        O  0.25113399  0.78894870  0.46645213    -0.70400
O279        O  0.20292702  0.73363490  0.48809026    -0.70200
O280        O  0.27615752  0.71853314  0.46734158    -0.69800
O281        O  0.21709449  0.78407662  0.47403876    -0.70400
O282        O  0.28392537  0.75255426  0.46274297    -0.70000
O283        O  0.22680707  0.70765488  0.48560739    -0.70600
O284        O  0.26551088  0.72761196  0.54387298    -0.70000
O285        O  0.20649504  0.76639987  0.52423395    -0.70800
O286        O  0.26337953  0.70412992  0.51754426    -0.70200
O287        O  0.23273858  0.76355579  0.54777146    -0.70600
O288        O  0.28272698  0.77731940  0.53336625    -0.70500
O289        O  0.28744789  0.78507265  0.49933110    -0.70300
C290        C  0.23185676  0.79367180  0.46395344     0.81500
C291        C  0.20771595  0.71412946  0.48600851     0.82000
C292        C  0.28622436  0.73330622  0.45781006     0.80900
C293        C  0.26554678  0.70862144  0.53708587     0.81300
C294        C  0.21320974  0.76583591  0.54326591     0.82400
C295        C  0.29225833  0.78738639  0.51860207     0.81500
Zn296      Zn  0.60919734  0.60918574  0.10858968     1.49700
Zn297      Zn  0.60875543  0.64608110  0.14472925     1.49400
Zn298      Zn  0.64527827  0.60921210  0.14560244     1.49100
Zn299      Zn  0.64589763  0.64555534  0.10847515     1.49500
O300        O  0.62734950  0.62755122  0.12690109    -1.79800
O301        O  0.57761943  0.61651960  0.11221340    -0.70400
O302        O  0.61310442  0.63959252  0.17673027    -0.70200
O303        O  0.63902852  0.57736178  0.14008317    -0.69800
O304        O  0.57712827  0.64159168  0.13707540    -0.70400
O305        O  0.61331244  0.57768195  0.11586345    -0.70000
O306        O  0.63844435  0.61496790  0.17719027    -0.70600
O307        O  0.67751485  0.64028374  0.11550118    -0.70000
O308        O  0.61561163  0.67772763  0.13935577    -0.70800
O309        O  0.67728209  0.61542121  0.14062638    -0.70200
O310        O  0.63984853  0.67749068  0.11363940    -0.70600
O311        O  0.64111762  0.63850996  0.07665515    -0.70500
O312        O  0.61653561  0.61315186  0.07708720    -0.70300
C313        C  0.56747678  0.62957321  0.12390275     0.81500
C314        C  0.62542949  0.62709636  0.18691956     0.82000
C315        C  0.62571792  0.56759906  0.12828429     0.80900
C316        C  0.68735314  0.62812781  0.12840867     0.81300
C317        C  0.62784083  0.68757065  0.12651968     0.82400
C318        C  0.62918768  0.62527358  0.06695026     0.81500
N319        N  0.63086655  0.61888425  0.00222025     0.00900
C320        C  0.64273522  0.62960704  0.98772838     0.03400
C321        C  0.63943207  0.62188147  0.96755375    -0.19400
C322        C  0.62499013  0.60582494  0.96937852    -0.19600
C323        C  0.62000577  0.60430206  0.99060417     0.03300
H324        H  0.64665300  0.62747508  0.95301681     0.17100
H325        H  0.61863336  0.59634420  0.95655250     0.17200
N326        N  0.61881977  0.50303828  0.13175818     0.00900
C327        C  0.60330027  0.49128400  0.12243868     0.03400
C328        C  0.60421217  0.47045742  0.12903275    -0.19400
C329        C  0.62087539  0.46904501  0.14284404    -0.19600
C330        C  0.62956716  0.48905241  0.14418417     0.03300
H331        H  0.59417043  0.45752682  0.12386074     0.17100
H332        H  0.62642684  0.45481071  0.15067479     0.17200
N333        N  0.75214938  0.63357938  0.13274865     0.00900
C334        C  0.76455782  0.64829458  0.12298333     0.03400
C335        C  0.78514655  0.64738090  0.13025468    -0.19400
C336        C  0.78579082  0.63150405  0.14497156    -0.19600
C337        C  0.76556852  0.62329785  0.14617085     0.03300
H338        H  0.79845858  0.65678349  0.12484914     0.17100
H339        H  0.79969196  0.62605511  0.15344823     0.17200
N340        N  0.50345241  0.63523206  0.11433546     0.00900
C341        C  0.49210395  0.62556280  0.09874608     0.03400
C342        C  0.47176163  0.63349988  0.09775796    -0.19400
C343        C  0.47022547  0.64854834  0.11329521    -0.19600
C344        C  0.48967955  0.64926584  0.12323097     0.03300
H345        H  0.45915277  0.62835593  0.08730169     0.17100
H346        H  0.45618227  0.65753197  0.11739879     0.17200
N347        N  0.63024950  0.75261228  0.12972678     0.00900
C348        C  0.64245858  0.76620897  0.11823930     0.03400
C349        C  0.64107923  0.78659200  0.12599368    -0.19400
C350        C  0.62746687  0.78587725  0.14281252    -0.19600
C351        C  0.62101832  0.76508641  0.14472327     0.03300
H352        H  0.64870627  0.80061503  0.11967017     0.17100
H353        H  0.62220165  0.79925083  0.15220621     0.17200
N354        N  0.62558850  0.62696631  0.25212285     0.00900
C355        C  0.63916848  0.61632659  0.26510874     0.03400
C356        C  0.63609597  0.62182904  0.28602988    -0.19400
C357        C  0.62000395  0.63629714  0.28630490    -0.19600
C358        C  0.61381868  0.63911454  0.26553962     0.03300
H359        H  0.64437141  0.61555941  0.29970557     0.17100
H360        H  0.61318621  0.64366619  0.30023373     0.17200
Zn361      Zn  0.73079664  0.73363833  0.01748930     1.49700
Zn362      Zn  0.74317615  0.74204450  0.97030936     1.49400
Zn363      Zn  0.74067578  0.78058313  0.00476539     1.49100
Zn364      Zn  0.77821238  0.74552243  0.00807658     1.49500
O365        O  0.74851487  0.75072786  0.99985706    -1.79800
O366        O  0.71343666  0.71356755  0.00181551    -0.70400
O367        O  0.73488358  0.76774947  0.95320486    -0.70200
O368        O  0.71684937  0.78414549  0.02707502    -0.69800
O369        O  0.72120306  0.71766444  0.96773380    -0.70400
O370        O  0.71128302  0.75020214  0.03456124    -0.70000
O371        O  0.73337948  0.79408679  0.97679042    -0.70600
O372        O  0.79243859  0.77332538  0.01504337    -0.70000
O373        O  0.77096852  0.73468968  0.95633537    -0.70800
O374        O  0.76668378  0.79740502  0.01266950    -0.70200
O375        O  0.79494781  0.73687246  0.98224144    -0.70600
O376        O  0.78095829  0.72394055  0.03266289    -0.70500
O377        O  0.74683679  0.71678744  0.03764200    -0.70300
C378        C  0.71097766  0.70848747  0.98263172     0.81500
C379        C  0.73298221  0.78731135  0.95779043     0.82000
C380        C  0.70715752  0.76957632  0.03727842     0.80900
C381        C  0.78610277  0.79247948  0.01498446     0.81300
C382        C  0.79008153  0.73455676  0.96279537     0.82400
C383        C  0.76609040  0.71419005  0.04238044     0.81500
Zn384      Zn  0.10498907  0.64071159  0.64671989     1.49700
Zn385      Zn  0.10533162  0.60440039  0.60962713     1.49400
Zn386      Zn  0.14105814  0.64163528  0.60965781     1.49100
Zn387      Zn  0.14230657  0.60477933  0.64594181     1.49500
O388        O  0.12338527  0.62287114  0.62803306    -1.79800
O389        O  0.07338054  0.63290655  0.64236864    -0.70400
O390        O  0.10940259  0.61188050  0.57791051    -0.70200
O391        O  0.13494630  0.67303767  0.61590317    -0.69800
O392        O  0.07361828  0.60766801  0.61761253    -0.70400
O393        O  0.10961609  0.67280377  0.64053460    -0.70000
O394        O  0.13470096  0.63651645  0.57802170    -0.70600
O395        O  0.17374103  0.61164497  0.63993347    -0.70000
O396        O  0.11370418  0.57294404  0.61320541    -0.70800
O397        O  0.17290090  0.63629834  0.61465880    -0.70200
O398        O  0.13817332  0.57303411  0.63868675    -0.70600
O399        O  0.13652944  0.60983764  0.67797441    -0.70500
O400        O  0.11189758  0.63517009  0.67830808    -0.70300
C401        C  0.06360095  0.61950582  0.63069652     0.81500
C402        C  0.12177603  0.62454316  0.56803164     0.82000
C403        C  0.12217736  0.68286747  0.62815786     0.80900
C404        C  0.18324614  0.62412899  0.62711507     0.81300
C405        C  0.12672635  0.56310180  0.62521459     0.82400
C406        C  0.12431720  0.62249010  0.68810519     0.81500
N407        N  0.99964213  0.61080243  0.63908451     0.00900
C408        C  0.98730303  0.59577401  0.62976497     0.03400
C409        C  0.96775709  0.59448606  0.63945496    -0.19400
C410        C  0.96770911  0.60933754  0.65523479    -0.19600
C411        C  0.98722489  0.61916862  0.65462036     0.03300
H412        H  0.95449893  0.58465381  0.63472581     0.17100
H413        H  0.95438302  0.61344609  0.66525194     0.17200
N414        N  0.12476653  0.74788911  0.62674407     0.00900
C415        C  0.13952730  0.75979868  0.61644042     0.03400
C416        C  0.13644772  0.78111896  0.62016495    -0.19400
C417        C  0.11918138  0.78270416  0.63316493    -0.19600
C418        C  0.11232240  0.76229426  0.63690168     0.03300
H419        H  0.14557271  0.79416620  0.61373666     0.17100
H420        H  0.11216381  0.79722703  0.63904775     0.17200
N421        N  0.12076284  0.62872895  0.50310825     0.00900
C422        C  0.10813392  0.61850364  0.48888869     0.03400
C423        C  0.11184875  0.62558458  0.46854636    -0.19400
C424        C  0.12736340  0.64065211  0.46997606    -0.19600
C425        C  0.13255444  0.64225529  0.49114264     0.03300
H426        H  0.10424862  0.62014098  0.45414582     0.17100
H427        H  0.13427958  0.64941755  0.45693335     0.17200
N428        N  0.12319781  0.62278525  0.75329195     0.00900
C429        C  0.13276866  0.60917294  0.76703144     0.03400
C430        C  0.12793660  0.61409557  0.78776524    -0.19400
C431        C  0.11491949  0.63137970  0.78711496    -0.19600
C432        C  0.11228939  0.63638798  0.76600633     0.03300
H433        H  0.13359045  0.60613455  0.80188872     0.17100
H434        H  0.10819310  0.63957132  0.80062202     0.17200
N435        N  0.13621389  0.49941470  0.61622563     0.00900
C436        C  0.12781679  0.48698460  0.60072405     0.03400
C437        C  0.13795954  0.46764256  0.59979467    -0.19400
C438        C  0.15307390  0.46783427  0.61532935    -0.19600
C439        C  0.15162741  0.48728749  0.62517752     0.03300
H440        H  0.13400818  0.45437437  0.58963957     0.17100
H441        H  0.16331449  0.45476715  0.61970752     0.17200
N442        N  0.24820215  0.62387899  0.62431217     0.00900
C443        C  0.26203304  0.61271405  0.63653905     0.03400
C444        C  0.28262604  0.61569938  0.62985712    -0.19400
C445        C  0.28173504  0.62923662  0.61294341    -0.19600
C446        C  0.26062605  0.63401836  0.60989561     0.03300
H447        H  0.29682503  0.60896921  0.63677450     0.17100
H448        H  0.29510653  0.63530025  0.60404429     0.17200
Zn449      Zn  0.01565688  0.73085645  0.73092066     1.49700
Zn450      Zn  0.00848437  0.74472747  0.77810602     1.49400
Zn451      Zn  0.00239721  0.77784203  0.73909961     1.49100
Zn452      Zn  0.96879129  0.73905727  0.74546218     1.49500
O453        O  0.99849357  0.74838827  0.74870452    -1.79800
O454        O  0.03720389  0.71532021  0.74650902    -0.70400
O455        O  0.01546804  0.77333607  0.79061156    -0.70200
O456        O  0.02340661  0.78054689  0.71397561    -0.69800
O457        O  0.03354673  0.72360229  0.78052889    -0.70400
O458        O  0.03097394  0.74649557  0.70929096    -0.70000
O459        O  0.01100982  0.79608383  0.76392228    -0.70600
O460        O  0.95069524  0.76420816  0.73692420    -0.70000
O461        O  0.98384268  0.73638160  0.79670423    -0.70800
O462        O  0.97390403  0.79052958  0.73242423    -0.70200
O463        O  0.95664396  0.73275390  0.77439076    -0.70600
O464        O  0.96570908  0.71333928  0.72500106    -0.70500
O465        O  0.99952897  0.70940156  0.71603308    -0.70300
C466        C  0.04279431  0.71346766  0.76561689     0.81500
C467        C  0.01440949  0.79215776  0.78341581     0.82000
C468        C  0.03316958  0.76571160  0.70422782     0.80900
C469        C  0.95496864  0.78366077  0.73354464     0.81300
C470        C  0.96419955  0.73352495  0.79308729     0.82400
C471        C  0.98039445  0.70376811  0.71480120     0.81500
Zn472      Zn  0.85692124  0.85708093  0.89230181     1.49700
Zn473      Zn  0.89319211  0.85685588  0.85571472     1.49400
Zn474      Zn  0.85680251  0.89331363  0.85565860     1.49100
Zn475      Zn  0.89332410  0.89351119  0.89200639     1.49500
O476        O  0.87506753  0.87519765  0.87391314    -1.79800
O477        O  0.86353727  0.82560407  0.88770115    -0.70400
O478        O  0.88638991  0.86143642  0.82414685    -0.70200
O479        O  0.82529416  0.88703776  0.86107968    -0.69800
O480        O  0.88871535  0.82534096  0.86293333    -0.70400
O481        O  0.82533138  0.86189582  0.88589317    -0.70000
O482        O  0.86244617  0.88739915  0.82414641    -0.70600
O483        O  0.88699349  0.92500243  0.88669824    -0.70000
O484        O  0.92470517  0.86396821  0.86004174    -0.70800
O485        O  0.86229582  0.92498450  0.86144745    -0.70200
O486        O  0.92481626  0.88875625  0.88520614    -0.70600
O487        O  0.88823361  0.88737139  0.92366442    -0.70500
O488        O  0.86232259  0.86336175  0.92376404    -0.70300
C489        C  0.87648664  0.81559824  0.87580655     0.81500
C490        C  0.87422200  0.87424369  0.81425190     0.82000
C491        C  0.81542204  0.87421003  0.87323936     0.80900
C492        C  0.87456118  0.93489578  0.87416098     0.81300
C493        C  0.93463742  0.87679256  0.87216050     0.82400
C494        C  0.87532037  0.87534753  0.93361077     0.81500
N495        N  0.87488863  0.87575264  0.99846615     0.00900
C496        C  0.86142195  0.86531391  0.01164582     0.03400
C497        C  0.86578765  0.86997012  0.03256150    -0.19400
C498        C  0.88256412  0.88378264  0.03245674    -0.19600
C499        C  0.88780843  0.88703455  0.01147953     0.03300
H500        H  0.85768378  0.86388399  0.04641700     0.17100
H501        H  0.89012999  0.89073635  0.04620723     0.17200
N502        N  0.87355330  0.87428486  0.74939098     0.00900
C503        C  0.86258192  0.88757302  0.73645103     0.03400
C504        C  0.86692783  0.88334694  0.71544117    -0.19400
C505        C  0.88106003  0.86683857  0.71523118    -0.19600
C506        C  0.88481703  0.86158508  0.73612231     0.03300
H507        H  0.86030789  0.89126441  0.70172366     0.17100
H508        H  0.88772470  0.85930961  0.70131828     0.17200
N509        N  0.88025773  0.75107275  0.88089363     0.00900
C510        C  0.86881608  0.73818050  0.89381099     0.03400
C511        C  0.87548704  0.71743336  0.89205146    -0.19400
C512        C  0.89162742  0.71733739  0.87751417    -0.19600
C513        C  0.89420854  0.73803003  0.87094906     0.03300
H514        H  0.86911666  0.70378905  0.90029451     0.17100
H515        H  0.90035435  0.70359540  0.87206669     0.17200
N516        N  0.75060240  0.87254116  0.87112127     0.00900
C517        C  0.73761584  0.88455338  0.85883747     0.03400
C518        C  0.71661465  0.87989582  0.86272946    -0.19400
C519        C  0.71643852  0.86442201  0.87795841    -0.19600
C520        C  0.73734206  0.86020463  0.88277589     0.03300
H521        H  0.70288600  0.88708432  0.85534388     0.17100
H522        H  0.70254441  0.85705637  0.88484287     0.17200
N523        N  0.99932932  0.87985199  0.86829285     0.00900
C524        C  0.01203701  0.86859440  0.85502485     0.03400
C525        C  0.03306850  0.87368117  0.85813443    -0.19400
C526        C  0.03355534  0.88864273  0.87386156    -0.19600
C527        C  0.01280615  0.89213528  0.87978757     0.03300
H528        H  0.04662680  0.86707430  0.84993759     0.17100
H529        H  0.04757061  0.89608173  0.88041479     0.17200
N530        N  0.87317163  0.99973875  0.87602871     0.00900
C531        C  0.86027873  0.01285120  0.86481642     0.03400
C532        C  0.86344947  0.03371733  0.87051055    -0.19400
C533        C  0.87888220  0.03367300  0.88579690    -0.19600
C534        C  0.88455878  0.01277672  0.88886737     0.03300
H535        H  0.85543655  0.04750347  0.86415135     0.17100
H536        H  0.88534837  0.04742639  0.89377910     0.17200
Zn537      Zn  0.64367365  0.13913222  0.64239785     1.49700
Zn538      Zn  0.64189671  0.10449997  0.60408159     1.49400
Zn539      Zn  0.60561638  0.10420638  0.64094360     1.49100
Zn540      Zn  0.60687308  0.14229918  0.60605857     1.49500
O541        O  0.62451880  0.12253896  0.62338651    -1.79800
O542        O  0.67512663  0.13261044  0.63591318    -0.70400
O543        O  0.63597599  0.07279499  0.60948344    -0.70200
O544        O  0.61102733  0.10928257  0.67278729    -0.69800
O545        O  0.67377700  0.10956716  0.60916923    -0.70400
O546        O  0.63757961  0.13254616  0.67391611    -0.70000
O547        O  0.61122272  0.07252727  0.63469396    -0.70600
O548        O  0.57511263  0.13747863  0.61177148    -0.70000
O549        O  0.63531885  0.11120190  0.57269860    -0.70800
O550        O  0.57405209  0.11089996  0.63500831    -0.70200
O551        O  0.61190071  0.13760260  0.57405545    -0.70600
O552        O  0.61383628  0.17338301  0.61332640    -0.70500
O553        O  0.63894947  0.17111901  0.63808160    -0.70300
C554        C  0.68437385  0.12081805  0.62226761     0.81500
C555        C  0.62363245  0.06272699  0.62200868     0.82000
C556        C  0.62406149  0.12070220  0.68328153     0.80900
C557        C  0.56465728  0.12455296  0.62333346     0.81300
C558        C  0.62334069  0.12467682  0.56344413     0.82400
C559        C  0.62675656  0.18213493  0.62624195     0.81500
N560        N  0.62527109  0.99767491  0.62179308     0.00900
C561        C  0.61383351  0.98406688  0.60957255     0.03400
C562        C  0.61923172  0.96329576  0.61368245    -0.19400
C563        C  0.63454318  0.96382053  0.62900019    -0.19600
C564        C  0.63793722  0.98489128  0.63368297     0.03300
H565        H  0.61259807  0.94923766  0.60639353     0.17100
H566        H  0.64230646  0.95025683  0.63610879     0.17200
N567        N  0.62285604  0.12698196  0.49842866     0.00900
C568        C  0.61116918  0.11553118  0.48434060     0.03400
C569        C  0.61620768  0.12088457  0.46375647    -0.19400
C570        C  0.63152590  0.13618209  0.46491140    -0.19600
C571        C  0.63528582  0.13962560  0.48616296     0.03300
H572        H  0.60940516  0.11435324  0.44940867     0.17100
H573        H  0.63910669  0.14402540  0.45165446     0.17200
N574        N  0.61874793  0.12003914  0.74806857     0.00900
C575        C  0.62919534  0.10811936  0.76271572     0.03400
C576        C  0.62140202  0.11173948  0.78281435    -0.19400
C577        C  0.60560063  0.12644162  0.78075964    -0.19600
C578        C  0.60430543  0.13125743  0.75948094     0.03300
H579        H  0.62691335  0.10470439  0.79747317     0.17100
H580        H  0.59629296  0.13323274  0.79348809     0.17200
N581        N  0.49983219  0.12937537  0.62203468     0.00900
C582        C  0.48574076  0.11850859  0.60982423     0.03400
C583        C  0.46538136  0.12585527  0.61287461    -0.19400
C584        C  0.46669154  0.14180260  0.62750444    -0.19600
C585        C  0.48780269  0.14363095  0.63285125     0.03300
H586        H  0.45105330  0.12003455  0.60541954     0.17100
H587        H  0.45359426  0.15093751  0.63381210     0.17200
N588        N  0.74915758  0.11833924  0.61768626     0.00900
C589        C  0.76103391  0.12820980  0.60267202     0.03400
C590        C  0.78210913  0.12267981  0.60436584    -0.19400
C591        C  0.78354506  0.10891652  0.62105623    -0.19600
C592        C  0.76329245  0.10655400  0.62893652     0.03300
H593        H  0.79514522  0.12855823  0.59486440     0.17100
H594        H  0.79791664  0.10175999  0.62713874     0.17200
N595        N  0.63140409  0.24667006  0.63122708     0.00900
C596        C  0.64547353  0.25935836  0.62093063     0.03400
C597        C  0.64437867  0.27988393  0.62837437    -0.19400
C598        C  0.62904196  0.28009567  0.64374917    -0.19600
C599        C  0.62130974  0.25969126  0.64515111     0.03300
H600        H  0.65346028  0.29337174  0.62286822     0.17100
H601        H  0.62374269  0.29378790  0.65264623     0.17200
Zn602      Zn  0.74254495  0.97198302  0.74182317     1.49700
Zn603      Zn  0.73159587  0.01960765  0.73232133     1.49400
Zn604      Zn  0.74159328  0.00753925  0.77924940     1.49100
Zn605      Zn  0.77873066  0.00854329  0.74319561     1.49500
O606        O  0.74891030  0.00161981  0.74945609    -1.79800
O607        O  0.71985362  0.96957297  0.71820741    -0.70400
O608        O  0.71278171  0.03773820  0.74858086    -0.70200
O609        O  0.73412653  0.98010845  0.79388009    -0.69800
O610        O  0.71325520  0.00381437  0.71330686    -0.70400
O611        O  0.73429827  0.95587361  0.76812299    -0.70000
O612        O  0.71791163  0.03016833  0.78256311    -0.70600
O613        O  0.79353436  0.01655431  0.77035086    -0.70000
O614        O  0.74785919  0.03828119  0.71407503    -0.70800
O615        O  0.76820962  0.01540388  0.79504719    -0.70200
O616        O  0.78191455  0.03143530  0.71980138    -0.70600
O617        O  0.79456040  0.98172848  0.73582209    -0.70500
O618        O  0.76967850  0.95668038  0.73430988    -0.70300
C619        C  0.70993623  0.98459448  0.70890131     0.81500
C620        C  0.70846205  0.04048885  0.76790510     0.82000
C621        C  0.73306523  0.96096267  0.78760184     0.80900
C622        C  0.78756752  0.01714636  0.78962110     0.81300
C623        C  0.76720020  0.04149318  0.71015849     0.82400
C624        C  0.78902463  0.96241712  0.73398504     0.81500
Zn625      Zn  0.72159543  0.25840678  0.49466813     1.49700
Zn626      Zn  0.76879746  0.26777251  0.48226804     1.49400
Zn627      Zn  0.75957958  0.25373765  0.52914353     1.49100
Zn628      Zn  0.75633817  0.22051831  0.48976193     1.49500
O629        O  0.75128116  0.24983953  0.49927079    -1.79800
O630        O  0.71868506  0.28268907  0.47258635    -0.70400
O631        O  0.78820134  0.28458403  0.49899423    -0.70200
O632        O  0.73371834  0.26131764  0.54643952    -0.69800
O633        O  0.75274268  0.28787910  0.46529916    -0.70400
O634        O  0.70779559  0.26545226  0.52276164    -0.70000
O635        O  0.78374754  0.27572186  0.53279431    -0.70600
O636        O  0.76457557  0.20262802  0.51477944    -0.70000
O637        O  0.78634928  0.25237530  0.46209692    -0.70800
O638        O  0.76665213  0.22528308  0.54186678    -0.70200
O639        O  0.77815005  0.21830735  0.46533064    -0.70600
O640        O  0.72846170  0.20677246  0.48247231    -0.70500
O641        O  0.70460342  0.23254419  0.48660659    -0.70300
C642        C  0.73343967  0.29235754  0.46258598     0.81500
C643        C  0.79294624  0.28650904  0.51831154     0.82000
C644        C  0.71430535  0.26435360  0.54184060     0.80900
C645        C  0.76658587  0.20651429  0.53445844     0.81300
C646        C  0.78858210  0.23328906  0.45655763     0.82400
C647        C  0.70936295  0.21318658  0.48349078     0.81500
Zn648      Zn  0.35360219  0.89144208  0.35741726     1.49700
Zn649      Zn  0.35363842  0.85445084  0.39358010     1.49400
Zn650      Zn  0.39014876  0.85514973  0.35719605     1.49100
Zn651      Zn  0.38970771  0.89138212  0.39395243     1.49500
O652        O  0.37175192  0.87306214  0.37556161    -1.79800
O653        O  0.32211064  0.88487714  0.36232069    -0.70400
O654        O  0.35892797  0.82292151  0.38662708    -0.70200
O655        O  0.38570413  0.86248222  0.32578036    -0.69800
O656        O  0.32199746  0.86050927  0.38792175    -0.70400
O657        O  0.36060301  0.88731978  0.32585496    -0.70000
O658        O  0.38370822  0.82336693  0.36145723    -0.70600
O659        O  0.42128200  0.88628798  0.38797581    -0.70000
O660        O  0.35993775  0.85938363  0.42539746    -0.70800
O661        O  0.42157990  0.86057763  0.36374676    -0.70200
O662        O  0.38450113  0.88477809  0.42533552    -0.70600
O663        O  0.38324864  0.92301076  0.38914985    -0.70500
O664        O  0.35823689  0.92291224  0.36424971    -0.70300
C665        C  0.31215425  0.87261660  0.37498870     0.81500
C666        C  0.37104473  0.81322920  0.37360020     0.82000
C667        C  0.37370961  0.87548949  0.31595345     0.80900
C668        C  0.43131667  0.87351578  0.37589853     0.81300
C669        C  0.37247903  0.87188844  0.43527221     0.82400
C670        C  0.37041405  0.93286064  0.37697854     0.81500
N671        N  0.24729052  0.87248691  0.37235260     0.00900
C672        C  0.23323204  0.86247231  0.38530366     0.03400
C673        C  0.21268743  0.86596307  0.37871039    -0.19400
C674        C  0.21388300  0.87858544  0.36109035    -0.19600
C675        C  0.23511772  0.88235259  0.35753012     0.03300
H676        H  0.19834014  0.85995338  0.38597323     0.17100
H677        H  0.20065063  0.88453459  0.35191335     0.17200
N678        N  0.49613714  0.87455029  0.37505907     0.00900
C679        C  0.50930696  0.88784254  0.38573587     0.03400
C680        C  0.53022203  0.88360440  0.38099268    -0.19400
C681        C  0.53014393  0.86709569  0.36688210    -0.19600
C682        C  0.50918394  0.86186462  0.36353701     0.03300
H683        H  0.54406711  0.89160382  0.38723988     0.17100
H684        H  0.54391161  0.85965186  0.35983086     0.17200
N685        N  0.37664433  0.87245190  0.50005656     0.00900
C686        C  0.36668158  0.86004425  0.51457428     0.03400
C687        C  0.37291945  0.86509881  0.53489808    -0.19400
C688        C  0.38729338  0.88123795  0.53308565    -0.19600
C689        C  0.38926685  0.88542968  0.51172256     0.03300
H690        H  0.36745737  0.85790057  0.54949553     0.17100
H691        H  0.39536775  0.88918742  0.54598325     0.17200
N692        N  0.36765548  0.74853624  0.36835820     0.00900
C693        C  0.35458587  0.73486842  0.37873927     0.03400
C694        C  0.35702757  0.71446781  0.37127708    -0.19400
C695        C  0.37216212  0.71533153  0.35575429    -0.19600
C696        C  0.37839824  0.73623316  0.35429555     0.03300
H697        H  0.34886350  0.70039859  0.37676965     0.17100
H698        H  0.37819344  0.70207661  0.34666308     0.17200
N699        N  0.38135070  0.88192002  0.25192207     0.00900
C700        C  0.39586086  0.87176009  0.23968454     0.03400
C701        C  0.39567857  0.87951051  0.21924582    -0.19400
C702        C  0.38049050  0.89502574  0.21865763    -0.19600
C703        C  0.37197314  0.89616440  0.23876586     0.03300
H704        H  0.40527597  0.87413625  0.20606562     0.17100
H705        H  0.37584024  0.90420766  0.20491972     0.17200
N706        N  0.36731376  0.99765008  0.37892876     0.00900
C707        C  0.37920110  0.01104753  0.39092449     0.03400
C708        C  0.37315364  0.03181578  0.38776479    -0.19400
C709        C  0.35695627  0.03142464  0.37330434    -0.19600
C710        C  0.35369870  0.01042981  0.36814509     0.03300
H711        H  0.37991945  0.04578174  0.39510521     0.17100
H712        H  0.34858475  0.04503222  0.36702350     0.17200
Zn713      Zn  0.23024078  0.01593782  0.23014367     1.49700
Zn714      Zn  0.27729481  0.00807286  0.24391641     1.49400
Zn715      Zn  0.23809789  0.00140950  0.27677392     1.49100
Zn716      Zn  0.24438289  0.96877467  0.23715327     1.49500
O717        O  0.24780883  0.99820786  0.24728487    -1.79800
O718        O  0.24596337  0.03783991  0.21544253    -0.70400
O719        O  0.28963073  0.01463190  0.27269343    -0.70200
O720        O  0.21241627  0.02183942  0.27975716    -0.69800
O721        O  0.28000053  0.03349433  0.22329615    -0.70400
O722        O  0.20844131  0.03074718  0.24594690    -0.70000
O723        O  0.26274130  0.01022766  0.29522522    -0.70600
O724        O  0.23543242  0.94996937  0.26162581    -0.70000
O725        O  0.29579701  0.98345521  0.23533436    -0.70800
O726        O  0.23211050  0.97240522  0.28877839    -0.70200
O727        O  0.27330935  0.95649059  0.23109401    -0.70600
O728        O  0.22428997  0.96656407  0.21106088    -0.70500
O729        O  0.21551156  0.00052650  0.20805557    -0.70300
C730        C  0.26511833  0.04323108  0.21359732     0.81500
C731        C  0.28228372  0.01357489  0.29145798     0.82000
C732        C  0.20288593  0.03209167  0.26509659     0.80900
C733        C  0.23276469  0.95367045  0.28130445     0.81300
C734        C  0.29205628  0.96387745  0.23220237     0.82400
C735        C  0.21424785  0.98157662  0.20183655     0.81500
Zn736      Zn  0.10727029  0.10725484  0.10601545     1.49700
Zn737      Zn  0.10691738  0.14296428  0.14351487     1.49400
Zn738      Zn  0.14356879  0.10646684  0.14289056     1.49100
Zn739      Zn  0.14364292  0.14386389  0.10696481     1.49500
O740        O  0.12535863  0.12515400  0.12487490    -1.79800
O741        O  0.07555219  0.11172608  0.11276559    -0.70400
O742        O  0.11140087  0.13518767  0.17504690    -0.70200
O743        O  0.13963407  0.07502139  0.13443794    -0.69800
O744        O  0.07520351  0.13763837  0.13680036    -0.70400
O745        O  0.11481765  0.07555086  0.10930011    -0.70000
O746        O  0.13610707  0.10994131  0.17474810    -0.70600
O747        O  0.17531034  0.13744485  0.11231327    -0.70000
O748        O  0.11396353  0.17487446  0.13970646    -0.70800
O749        O  0.17524724  0.11359113  0.13839241    -0.70200
O750        O  0.13895535  0.17532003  0.11473221    -0.70600
O751        O  0.13688470  0.13995924  0.07498113    -0.70500
O752        O  0.11172154  0.11519006  0.07459309    -0.70300
C753        C  0.06543583  0.12451609  0.12480294     0.81500
C754        C  0.12317322  0.12189352  0.18481819     0.82000
C755        C  0.12795110  0.06541222  0.12094057     0.80900
C756        C  0.18521212  0.12563143  0.12547725     0.81300
C757        C  0.12697133  0.18501516  0.12788857     0.82400
C758        C  0.12382431  0.12819155  0.06485586     0.81500
N759        N  0.11573314  0.13497265  0.00065445     0.00900
C760        C  0.12345603  0.15065318  0.98799855     0.03400
C761        C  0.11365196  0.15059087  0.96846871    -0.19400
C762        C  0.09943765  0.13425500  0.96874969    -0.19600
C763        C  0.10107138  0.12490841  0.98843036     0.03300
H764        H  0.11720197  0.16073200  0.95507766     0.17100
H765        H  0.08963042  0.12909216  0.95563492     0.17200
N766        N  0.13879378  0.00251663  0.10922001     0.00900
C767        C  0.15584784  0.99131481  0.11618013     0.03400
C768        C  0.15870318  0.97320863  0.10427966    -0.19400
C769        C  0.14278382  0.97289657  0.08955537    -0.19600
C770        C  0.13075184  0.99082632  0.09297448     0.03300
H771        H  0.17019501  0.96075446  0.10704067     0.17100
H772        H  0.13943068  0.96016250  0.07853811     0.17200
N773        N  0.00032405  0.12313474  0.12504781     0.00900
C774        C  0.98700735  0.13585067  0.13628919     0.03400
C775        C  0.96609457  0.13092539  0.13231516    -0.19400
C776        C  0.96620942  0.11456817  0.11812556    -0.19600
C777        C  0.98718492  0.11008531  0.11395575     0.03300
H778        H  0.95221766  0.13847683  0.13903541     0.17100
H779        H  0.95243665  0.10677805  0.11145869     0.17200
N780        N  0.11520305  0.11487206  0.24903846     0.00900
C781        C  0.12321644  0.09933937  0.26169569     0.03400
C782        C  0.11395371  0.09971987  0.28148718    -0.19400
C783        C  0.09977481  0.11610188  0.28135788    -0.19600
C784        C  0.10089328  0.12514989  0.26149694     0.03300
H785        H  0.11774382  0.08966408  0.29487721     0.17100
H786        H  0.09025227  0.12141113  0.29462181     0.17200
N787        N  0.13565896  0.24886197  0.13650906     0.00900
C788        C  0.15199297  0.26059390  0.12870568     0.03400
C789        C  0.15388915  0.27954571  0.13941777    -0.19400
C790        C  0.13812514  0.27985790  0.15426480    -0.19600
C791        C  0.12712643  0.26110389  0.15207962     0.03300
H792        H  0.16467704  0.29241087  0.13582291     0.17100
H793        H  0.13414835  0.29302519  0.16454256     0.17200
N794        N  0.25029352  0.12533326  0.12536198     0.00900
C795        C  0.26344743  0.11451609  0.13857814     0.03400
C796        C  0.28438643  0.11735721  0.13302096    -0.19400
C797        C  0.28444905  0.13044787  0.11577102    -0.19600
C798        C  0.26354374  0.13509035  0.11142778     0.03300
H799        H  0.29815872  0.11061197  0.14074123     0.17100
H800        H  0.29828906  0.13614007  0.10735439     0.17200
Zn801      Zn  0.85566022  0.39125802  0.39496095     1.49700
Zn802      Zn  0.85508023  0.35634930  0.35703197     1.49400
Zn803      Zn  0.89210526  0.39236400  0.35841910     1.49100
Zn804      Zn  0.89174862  0.35426706  0.39319984     1.49500
O805        O  0.87363862  0.37357190  0.37590411    -1.79800
O806        O  0.82384797  0.38590624  0.38937925    -0.70400
O807        O  0.86121596  0.36297509  0.32568445    -0.70200
O808        O  0.88621814  0.42384742  0.36492146    -0.69800
O809        O  0.82352172  0.36237213  0.36304035    -0.70400
O810        O  0.86141670  0.42302413  0.39005570    -0.70000
O811        O  0.88683460  0.38728630  0.32662860    -0.70600
O812        O  0.92336152  0.35996655  0.38768304    -0.70000
O813        O  0.86040916  0.32448743  0.36151067    -0.70800
O814        O  0.92365996  0.38647707  0.36435873    -0.70200
O815        O  0.88563775  0.32294570  0.38617742    -0.70600
O816        O  0.88653444  0.35902919  0.42501987    -0.70500
O817        O  0.86213880  0.38455669  0.42627762    -0.70300
C818        C  0.81375597  0.37424879  0.37623170     0.81500
C819        C  0.87421760  0.37531270  0.31625729     0.82000
C820        C  0.87376195  0.43334971  0.37776143     0.80900
C821        C  0.93341919  0.37319728  0.37612380     0.81300
C822        C  0.87287759  0.31381566  0.37337021     0.82400
C823        C  0.87461841  0.37156389  0.43554984     0.81500
N824        N  0.87570600  0.37592807  0.25136841     0.00900
C825        C  0.88794596  0.36389514  0.23833131     0.03400
C826        C  0.88381855  0.36841531  0.21734217    -0.19400
C827        C  0.86849399  0.38379527  0.21721846    -0.19600
C828        C  0.86382909  0.38809664  0.23813806     0.03300
H829        H  0.89122079  0.36130014  0.20358376     0.17100
H830        H  0.86150541  0.39110527  0.20334718     0.17200
N831        N  0.87050809  0.24919112  0.36783434     0.00900
C832        C  0.88186002  0.23698173  0.35419816     0.03400
C833        C  0.87520742  0.21616619  0.35489517    -0.19400
C834        C  0.85919893  0.21528529  0.36953202    -0.19600
C835        C  0.85668950  0.23558819  0.37723448     0.03300
H836        H  0.88161885  0.20295323  0.34600619     0.17100
H837        H  0.85065155  0.20123087  0.37444712     0.17200
N838        N  0.99831222  0.37239792  0.37776370     0.00900
C839        C  0.01154293  0.35937636  0.36680327     0.03400
C840        C  0.03240574  0.36309894  0.37216353    -0.19400
C841        C  0.03225902  0.37899648  0.38694622    -0.19600
C842        C  0.01131126  0.38441602  0.39007280     0.03300
H843        H  0.04627928  0.35526943  0.36576555     0.17100
H844        H  0.04599510  0.38605621  0.39444259     0.17200
N845        N  0.87743889  0.37183132  0.50043363     0.00900
C846        C  0.89016635  0.38413057  0.51272659     0.03400
C847        C  0.88621681  0.38081702  0.53396366    -0.19400
C848        C  0.87052499  0.36591000  0.53506736    -0.19600
C849        C  0.86548836  0.36066510  0.51446846     0.03300
H850        H  0.89405250  0.38835541  0.54724891     0.17100
H851        H  0.86365869  0.35938103  0.54938426     0.17200
N852        N  0.87243057  0.49826628  0.37982643     0.00900
C853        C  0.86016654  0.51147483  0.36797958     0.03400
C854        C  0.86360470  0.53235859  0.37347016    -0.19400
C855        C  0.87851661  0.53224825  0.38925447    -0.19600
C856        C  0.88364778  0.51130040  0.39284419     0.03300
H857        H  0.85613587  0.54621329  0.36661715     0.17100
H858        H  0.88504084  0.54599903  0.39719690     0.17200
N859        N  0.74880071  0.37454845  0.37394562     0.00900
C860        C  0.73658770  0.38563020  0.36006583     0.03400
C861        C  0.71543539  0.38069465  0.36250458    -0.19400
C862        C  0.71430743  0.36607450  0.37849204    -0.19600
C863        C  0.73481228  0.36262984  0.38524604     0.03300
H864        H  0.70220319  0.38727790  0.35376863     0.17100
H865        H  0.70001326  0.35891476  0.38474910     0.17200
Zn866      Zn  0.02013964  0.23441254  0.23062386     1.49700
Zn867      Zn  0.00886843  0.28111129  0.24306416     1.49400
Zn868      Zn  0.97257971  0.24444619  0.24045448     1.49100
Zn869      Zn  0.00803037  0.24301197  0.27789498     1.49500
O870        O  0.00209990  0.25107410  0.24829446    -1.79800
O871        O  0.03904326  0.25129700  0.21347019    -0.70400
O872        O  0.98200296  0.29667967  0.23536267    -0.70200
O873        O  0.97042231  0.22164888  0.21685437    -0.69800
O874        O  0.03269483  0.28517648  0.22064688    -0.70400
O875        O  0.00472864  0.21648781  0.21091473    -0.70000
O876        O  0.95727123  0.27150446  0.23288597    -0.70600
O877        O  0.98045902  0.23618678  0.29245562    -0.70000
O878        O  0.01590312  0.29510806  0.27098093    -0.70800
O879        O  0.95626386  0.23618013  0.26668676    -0.70200
O880        O  0.01684758  0.26880726  0.29462219    -0.70600
O881        O  0.02960663  0.21835304  0.28039762    -0.70500
O882        O  0.03798645  0.21490728  0.24638695    -0.70300
C883        C  0.04278463  0.27071672  0.21064306     0.81500
C884        C  0.96279548  0.29091717  0.23308491     0.82000
C885        C  0.98554703  0.21244644  0.20699531     0.80900
C886        C  0.96132599  0.23508433  0.28618683     0.81300
C887        C  0.01748759  0.28843483  0.28996400     0.82400
C888        C  0.04009760  0.20947472  0.26551017     0.81500
C889        C  0.00613535  0.34409922  0.35072255    -0.14200
C890        C  0.00778496  0.33103992  0.33681793     0.09900
C891        C  0.01315218  0.31625448  0.32079096     0.11700
C892        C  0.01714714  0.30367014  0.30691038    -0.15000
C893        C  0.94474053  0.23514330  0.30178963    -0.14200
C894        C  0.93088304  0.23842934  0.31457928     0.09900
C895        C  0.91433550  0.24263805  0.32912025     0.11700
C896        C  0.89949768  0.24326329  0.34117638    -0.15000
C897        C  0.94653050  0.30687271  0.23353426    -0.14200
C898        C  0.93303856  0.31987962  0.23749802     0.09900
C899        C  0.91730079  0.33502470  0.24269665     0.11700
C900        C  0.90361798  0.34833924  0.24410143    -0.15000
C901        C  0.87313776  0.47578369  0.37899555    -0.08900
C902        C  0.87356055  0.45646337  0.37837985    -0.10500
C903        C  0.87548062  0.37121054  0.45864397    -0.08900
C904        C  0.87640811  0.37130419  0.47795366    -0.10500
C905        C  0.87252422  0.29073978  0.37215913    -0.08900
C906        C  0.87181504  0.27149503  0.37051681    -0.10500
C907        C  0.87476284  0.37562924  0.29316982    -0.08900
C908        C  0.87525997  0.37576306  0.27385705    -0.10500
C909        C  0.79061154  0.37456066  0.37614585    -0.08900
C910        C  0.77127506  0.37465366  0.37545726    -0.10500
C911        C  0.97583578  0.37293202  0.37693101    -0.08900
C912        C  0.95651952  0.37315165  0.37643053    -0.10500
C913        C  0.05934828  0.27510494  0.19576986    -0.14200
C914        C  0.07381847  0.27128700  0.18385412     0.09900
C915        C  0.09085663  0.26341276  0.17157184     0.11700
C916        C  0.10675971  0.25876001  0.16200746    -0.15000
C917        C  0.08980738  0.14457676  0.25712156    -0.14200
C918        C  0.07928349  0.16030649  0.25994487     0.09900
C919        C  0.06633370  0.17757806  0.26605699     0.11700
C920        C  0.05450541  0.19229537  0.26917045    -0.15000
C921        C  0.98199830  0.19661158  0.19109264    -0.14200
C922        C  0.98483650  0.18287781  0.17807582     0.09900
C923        C  0.99028446  0.16679264  0.16343017     0.11700
C924        C  0.99234094  0.15256921  0.15081020    -0.15000
C925        C  0.12863433  0.20808720  0.12981529    -0.08900
C926        C  0.13123585  0.22714087  0.13228677    -0.10500
C927        C  0.13343357  0.02371988  0.11470196    -0.08900
C928        C  0.13021471  0.04249857  0.11820974    -0.10500
C929        C  0.02287707  0.12356717  0.12489214    -0.08900
C930        C  0.04224808  0.12405647  0.12486015    -0.10500
C931        C  0.12146042  0.12007975  0.20789984    -0.08900
C932        C  0.11906410  0.11804930  0.22703244    -0.10500
C933        C  0.12229779  0.12988492  0.04175395    -0.08900
C934        C  0.11983929  0.13179884  0.02261693    -0.10500
C935        C  0.20838547  0.12581334  0.12567536    -0.08900
C936        C  0.22775189  0.12574018  0.12562099    -0.10500
C937        C  0.16673892  0.99370715  0.13607782    -0.14200
C938        C  0.17703478  0.98956077  0.15167486     0.09900
C939        C  0.18967167  0.98222969  0.16872255     0.11700
C940        C  0.20102398  0.97832351  0.18363826    -0.15000
C941        C  0.18535999  0.04599214  0.26912474    -0.14200
C942        C  0.17118019  0.05853496  0.26628551     0.09900
C943        C  0.15520326  0.07315562  0.26039215     0.11700
C944        C  0.14092227  0.08558310  0.25757548    -0.15000
C945        C  0.26891302  0.06070943  0.19964470    -0.14200
C946        C  0.26591648  0.07449235  0.18674342     0.09900
C947        C  0.26012456  0.08920955  0.17088553     0.11700
C948        C  0.25793918  0.10128188  0.15623802    -0.15000
C949        C  0.33818638  0.00446610  0.35246551    -0.14200
C950        C  0.32478570  0.00549150  0.33881451     0.09900
C951        C  0.30960633  0.01007267  0.32289384     0.11700
C952        C  0.29695408  0.01351987  0.30891812    -0.15000
C953        C  0.30952275  0.94925756  0.23261211    -0.14200
C954        C  0.32362481  0.93688736  0.23645466     0.09900
C955        C  0.33996010  0.92239962  0.24162750     0.11700
C956        C  0.35443564  0.91000858  0.24338767    -0.15000
C957        C  0.24188009  0.89592364  0.34042692    -0.14200
C958        C  0.24123143  0.90814823  0.32568371     0.09900
C959        C  0.23675053  0.92284509  0.30927094     0.11700
C960        C  0.23316105  0.93622740  0.29601623    -0.15000
C961        C  0.47367289  0.87413674  0.37560402    -0.08900
C962        C  0.45437658  0.87380313  0.37587392    -0.10500
C963        C  0.37323715  0.87154808  0.45836999    -0.08900
C964        C  0.37459086  0.87185068  0.47765081    -0.10500
C965        C  0.28905663  0.87242974  0.37456282    -0.08900
C966        C  0.26974904  0.87243140  0.37372968    -0.10500
C967        C  0.36912029  0.77087590  0.37083387    -0.08900
C968        C  0.37019015  0.79013264  0.37237330    -0.10500
C969        C  0.36956878  0.95592555  0.37762404    -0.08900
C970        C  0.36860262  0.97521091  0.37814230    -0.10500
C971        C  0.37541148  0.87720707  0.29300548    -0.08900
C972        C  0.37776889  0.87916087  0.27394267    -0.10500
C973        C  0.80325114  0.22967130  0.43958552    -0.14200
C974        C  0.81570785  0.23230763  0.42530544     0.09900
C975        C  0.82999988  0.23760414  0.40885797     0.11700
C976        C  0.84235040  0.23987400  0.39442964    -0.15000
C977        C  0.80925824  0.30163903  0.52266488    -0.14200
C978        C  0.82248954  0.31507289  0.51953331     0.09900
C979        C  0.83715611  0.33073962  0.51311435     0.11700
C980        C  0.85002540  0.34454719  0.51012519    -0.15000
C981        C  0.72929465  0.30872269  0.44733678    -0.14200
C982        C  0.73167239  0.32192991  0.43367396     0.09900
C983        C  0.73683224  0.33644457  0.41733585     0.11700
C984        C  0.73911590  0.34863066  0.40274483    -0.15000
C985        C  0.65912369  0.25392520  0.60341680    -0.14200
C986        C  0.67148314  0.25528846  0.58883439     0.09900
C987        C  0.68616001  0.26018632  0.57252065     0.11700
C988        C  0.69891197  0.26391439  0.55869254    -0.15000
C989        C  0.76576280  0.18906886  0.54901593    -0.14200
C990        C  0.76129166  0.17488959  0.56104774     0.09900
C991        C  0.75568470  0.15854399  0.57530223     0.11700
C992        C  0.75443568  0.14434068  0.58802379    -0.15000
C993        C  0.77135921  0.05676946  0.69387034    -0.14200
C994        C  0.76851902  0.06917620  0.67958327     0.09900
C995        C  0.76250671  0.08270849  0.66273332     0.11700
C996        C  0.75951154  0.09393882  0.64753554    -0.15000
C997        C  0.69201707  0.05561038  0.77208631    -0.14200
C998        C  0.67787243  0.06817181  0.76916011     0.09900
C999        C  0.66149464  0.08218530  0.76289786     0.11700
C1000       C  0.64694044  0.09415411  0.75952716    -0.15000
C1001       C  0.69269144  0.19767140  0.48383723    -0.14200
C1002       C  0.67932419  0.18446832  0.48752887     0.09900
C1003       C  0.66395073  0.16880194  0.49218083     0.11700
C1004       C  0.65059683  0.15511929  0.49291498    -0.15000
C1005       C  0.69442221  0.98088681  0.69273884    -0.14200
C1006       C  0.68126460  0.98367357  0.67913637     0.09900
C1007       C  0.66614095  0.98903483  0.66347664     0.11700
C1008       C  0.65299040  0.99083057  0.64970870    -0.15000
C1009       C  0.54152313  0.12553897  0.62318729    -0.08900
C1010       C  0.52222973  0.12702251  0.62275619    -0.10500
C1011       C  0.62273777  0.12531845  0.54029230    -0.08900
C1012       C  0.62253931  0.12594346  0.52094162    -0.10500
C1013       C  0.62441007  0.02020275  0.62189998    -0.08900
C1014       C  0.62387151  0.03955948  0.62193192    -0.10500
C1015       C  0.62766420  0.20518677  0.62754184    -0.08900
C1016       C  0.62901493  0.22440733  0.62903146    -0.10500
C1017       C  0.70750436  0.12017939  0.62152310    -0.08900
C1018       C  0.72679477  0.11941299  0.62019036    -0.10500
C1019       C  0.62320290  0.12040624  0.70642462    -0.08900
C1020       C  0.62156493  0.12022842  0.72571179    -0.10500
C1021       C  0.80345213  0.01701334  0.80591702    -0.14200
C1022       C  0.81661344  0.01331426  0.81930841     0.09900
C1023       C  0.83194016  0.00842426  0.83492874     0.11700
C1024       C  0.84519273  0.00720594  0.84866738    -0.15000
C1025       C  0.74347764  0.90059344  0.84373332    -0.14200
C1026       C  0.74220422  0.91453723  0.83070509     0.09900
C1027       C  0.73712604  0.93058122  0.81588518     0.11700
C1028       C  0.73328682  0.94435467  0.80316395    -0.15000
C1029       C  0.84744429  0.90362226  0.74238560    -0.14200
C1030       C  0.83411708  0.91735413  0.74158474     0.09900
C1031       C  0.81859766  0.93302691  0.73732258     0.11700
C1032       C  0.80523050  0.94636460  0.73405250    -0.15000
C1033       C  0.79236094  0.87355525  0.87257156    -0.08900
C1034       C  0.77306878  0.87304501  0.87189164    -0.10500
C1035       C  0.87855173  0.77338244  0.87874884    -0.08900
C1036       C  0.87746253  0.79259024  0.87716176    -0.10500
C1037       C  0.95766323  0.87788995  0.87098887    -0.08900
C1038       C  0.97691763  0.87884623  0.86983394    -0.10500
C1039       C  0.87534226  0.87531836  0.95668602    -0.08900
C1040       C  0.87515682  0.87538515  0.97599145    -0.10500
C1041       C  0.87359124  0.87400015  0.77187104    -0.08900
C1042       C  0.87382574  0.87394776  0.79117863    -0.10500
C1043       C  0.87431835  0.95798157  0.87447803    -0.08900
C1044       C  0.87395397  0.97728393  0.87507794    -0.10500
C1045       C  0.01442190  0.80949354  0.79821213    -0.14200
C1046       C  0.01106947  0.82335895  0.81099568     0.09900
C1047       C  0.00668379  0.83917252  0.82631490     0.11700
C1048       C  0.00588693  0.85280585  0.83972847    -0.15000
C1049       C  0.93800675  0.79889797  0.73352482    -0.14200
C1050       C  0.92501888  0.81262546  0.73668273     0.09900
C1051       C  0.91070096  0.82942183  0.74083664     0.11700
C1052       C  0.89865001  0.84427933  0.74169139    -0.15000
C1053       C  0.94971689  0.73381982  0.81066429    -0.14200
C1054       C  0.93726719  0.73746826  0.82474299     0.09900
C1055       C  0.92235799  0.74225445  0.84080471     0.11700
C1056       C  0.90926041  0.74347402  0.85469508    -0.15000
C1057       C  0.09941692  0.65417134  0.75996335    -0.14200
C1058       C  0.08766709  0.66916823  0.76162961     0.09900
C1059       C  0.07331693  0.68561388  0.76676826     0.11700
C1060       C  0.05989871  0.69899860  0.76938071    -0.15000
C1061       C  0.09379875  0.75844558  0.64961092    -0.14200
C1062       C  0.07849039  0.76123658  0.66074002     0.09900
C1063       C  0.06162029  0.76697206  0.67435855     0.11700
C1064       C  0.04784898  0.76968832  0.68735736    -0.15000
C1065       C  0.99067531  0.63832984  0.66647602    -0.14200
C1066       C  0.98702446  0.65374697  0.67721771     0.09900
C1067       C  0.98008728  0.67081741  0.69004235     0.11700
C1068       C  0.97655763  0.68576615  0.70147183    -0.15000
C1069       C  0.12120767  0.62539190  0.54487787    -0.08900
C1070       C  0.12097964  0.62661246  0.52555130    -0.10500
C1071       C  0.13178190  0.52113948  0.62035799    -0.08900
C1072       C  0.12898067  0.54011896  0.62307297    -0.10500
C1073       C  0.04056643  0.61737782  0.63270317    -0.08900
C1074       C  0.02150322  0.61486746  0.63521693    -0.10500
C1075       C  0.20638716  0.62435060  0.62654683    -0.08900
C1076       C  0.22572085  0.62426797  0.62571997    -0.10500
C1077       C  0.12313486  0.72540184  0.62734584    -0.08900
C1078       C  0.12219202  0.70605831  0.62795287    -0.10500
C1079       C  0.12442310  0.62245918  0.71133578    -0.08900
C1080       C  0.12403902  0.62260837  0.73072913    -0.10500
C1081       C  0.80166626  0.80911694  0.01496502    -0.14200
C1082       C  0.81491468  0.82252331  0.01158787     0.09900
C1083       C  0.83078086  0.83773500  0.00706863     0.11700
C1084       C  0.84487270  0.85064127  0.00601416    -0.15000
C1085       C  0.80680209  0.73449149  0.94733446    -0.14200
C1086       C  0.82060412  0.73798186  0.93453393     0.09900
C1087       C  0.83688702  0.74269003  0.91983543     0.11700
C1088       C  0.85142614  0.74384642  0.90744985    -0.15000
C1089       C  0.73310893  0.80254320  0.94088409    -0.14200
C1090       C  0.73675887  0.81552969  0.92731193     0.09900
C1091       C  0.74162597  0.83098005  0.91181108     0.11700
C1092       C  0.74289408  0.84454894  0.89839320    -0.15000
C1093       C  0.69123698  0.77396489  0.05285343    -0.14200
C1094       C  0.67859841  0.77113789  0.06692808     0.09900
C1095       C  0.66519770  0.76498528  0.08382081     0.11700
C1096       C  0.65434266  0.76197300  0.09927964    -0.15000
C1097       C  0.76999589  0.69980134  0.05950427    -0.14200
C1098       C  0.76717263  0.68762805  0.07398671     0.09900
C1099       C  0.76150692  0.67373727  0.09065363     0.11700
C1100       C  0.75924753  0.66177784  0.10540952    -0.15000
C1101       C  0.65682776  0.64719543  0.99120971    -0.14200
C1102       C  0.66911425  0.66152474  0.98802353     0.09900
C1103       C  0.68349633  0.67762030  0.98186087     0.11700
C1104       C  0.69614747  0.69167124  0.97885407    -0.15000
C1105       C  0.62429962  0.54449008  0.12917882    -0.08900
C1106       C  0.62211042  0.52527382  0.13010244    -0.10500
C1107       C  0.54445823  0.63105657  0.12175576    -0.08900
C1108       C  0.52538898  0.63269699  0.11883772    -0.10500
C1109       C  0.71054781  0.62911167  0.12943341    -0.08900
C1110       C  0.72983724  0.63078993  0.13066853    -0.10500
C1111       C  0.62480010  0.62673775  0.21014843    -0.08900
C1112       C  0.62487510  0.62660791  0.22955169    -0.10500
C1113       C  0.62888471  0.73016082  0.12775325    -0.08900
C1114       C  0.62824278  0.71079671  0.12679252    -0.10500
C1115       C  0.63039587  0.62176645  0.02457601    -0.08900
C1116       C  0.63000395  0.62377377  0.04383550    -0.10500
C1117       C  0.30902719  0.80208370  0.52266901    -0.14200
C1118       C  0.32273585  0.81507273  0.51978546     0.09900
C1119       C  0.33795095  0.83034744  0.51377478     0.11700
C1120       C  0.35108464  0.84390631  0.51085607    -0.15000
C1121       C  0.23759029  0.84941972  0.40355229    -0.14200
C1122       C  0.23535445  0.83771108  0.41856244     0.09900
C1123       C  0.23020361  0.82341974  0.43514383     0.11700
C1124       C  0.22777400  0.81021543  0.44882972    -0.15000
C1125       C  0.15573431  0.75291101  0.60193338    -0.14200
C1126       C  0.16967649  0.75432847  0.58888192     0.09900
C1127       C  0.18512044  0.76015104  0.57363917     0.11700
C1128       C  0.19796233  0.76477031  0.56018432    -0.15000
C1129       C  0.30077361  0.72924880  0.44082231    -0.14200
C1130       C  0.31338939  0.73170403  0.42663891     0.09900
C1131       C  0.32794489  0.73697965  0.41039248     0.11700
C1132       C  0.34041675  0.73929317  0.39605854    -0.15000
C1133       C  0.14890858  0.65660491  0.49797570    -0.14200
C1134       C  0.16270328  0.66981844  0.49682467     0.09900
C1135       C  0.17798795  0.68532741  0.49138684     0.11700
C1136       C  0.19110933  0.69857074  0.48700390    -0.15000
C1137       C  0.26514059  0.69166253  0.55227854    -0.14200
C1138       C  0.26106922  0.67806896  0.56513422     0.09900
C1139       C  0.25571414  0.66257020  0.58045425     0.11700
C1140       C  0.25435283  0.64920868  0.59408540    -0.15000
C1141       C  0.80630930  0.44647061  0.23419378    -0.14200
C1142       C  0.81950088  0.43306374  0.23778123     0.09900
C1143       C  0.83484447  0.41739955  0.24254190     0.11700
C1144       C  0.84823399  0.40378171  0.24373662    -0.15000
C1145       C  0.80483701  0.51585115  0.30737181    -0.14200
C1146       C  0.81772003  0.51218668  0.32109296     0.09900
C1147       C  0.83261965  0.50732215  0.33721113     0.11700
C1148       C  0.84546522  0.50597138  0.35136726    -0.15000
C1149       C  0.77315428  0.55912313  0.19689818    -0.14200
C1150       C  0.77028135  0.57334926  0.18441606     0.09900
C1151       C  0.76427105  0.58994716  0.17055513     0.11700
C1152       C  0.76138824  0.60491900  0.15898680    -0.15000
C1153       C  0.74319390  0.40149398  0.34507507    -0.14200
C1154       C  0.74230468  0.41525834  0.33181767     0.09900
C1155       C  0.73753422  0.43096852  0.31653279     0.11700
C1156       C  0.73392176  0.44448448  0.30346771    -0.15000
C1157       C  0.64856733  0.49267342  0.15629502    -0.14200
C1158       C  0.66399442  0.48976533  0.16725665     0.09900
C1159       C  0.68099577  0.48388539  0.18069395     0.11700
C1160       C  0.69520909  0.48096684  0.19319061    -0.15000
C1161       C  0.69451515  0.55650323  0.27187520    -0.14200
C1162       C  0.68146592  0.57012750  0.26865418     0.09900
C1163       C  0.66679575  0.58590745  0.26238200     0.11700
C1164       C  0.65402294  0.59991028  0.25974893    -0.15000
C1165       C  0.14165580  0.16388838  0.99160738    -0.14200
C1166       C  0.15630162  0.17577288  0.98836956     0.09900
C1167       C  0.17267218  0.18978602  0.98211421     0.11700
C1168       C  0.18710181  0.20199821  0.97912837    -0.15000
C1169       C  0.16327380  0.25746755  0.10915154    -0.14200
C1170       C  0.17392408  0.26134184  0.09372955     0.09900
C1171       C  0.18701420  0.26844077  0.07693912     0.11700
C1172       C  0.19888752  0.27205664  0.06236912    -0.15000
C1173       C  0.26936352  0.19032723  0.05146614    -0.14200
C1174       C  0.26636449  0.17673299  0.06456343     0.09900
C1175       C  0.26052775  0.16190882  0.08030522     0.11700
C1176       C  0.25822414  0.14937239  0.09454118    -0.15000
C1177       C  0.34771296  0.34689508  0.00667554    -0.14200
C1178       C  0.33535453  0.33231665  0.00767771     0.09900
C1179       C  0.32079479  0.31595640  0.01258093     0.11700
C1180       C  0.30776037  0.30245828  0.01640461    -0.15000
C1181       C  0.30046773  0.23490819  0.94249024    -0.14200
C1182       C  0.31376679  0.23875798  0.92927408     0.09900
C1183       C  0.32961611  0.24377047  0.91421893     0.11700
C1184       C  0.34344763  0.24473780  0.90104380    -0.15000
C1185       C  0.23500486  0.31047544  0.94967456    -0.14200
C1186       C  0.23923834  0.32345539  0.93623438     0.09900
C1187       C  0.24472798  0.33762672  0.91970162     0.11700
C1188       C  0.24639358  0.34930325  0.90461972    -0.15000
C1189       C  0.38133201  0.47739138  0.87231007    -0.08900
C1190       C  0.38101787  0.45811680  0.87410307    -0.10500
C1191       C  0.46123331  0.36895182  0.88117273    -0.08900
C1192       C  0.48024358  0.36624571  0.88376701    -0.10500
C1193       C  0.29561410  0.37573261  0.87466362    -0.08900
C1194       C  0.27629214  0.37499669  0.87460914    -0.10500
C1195       C  0.38145889  0.37898137  0.79303950    -0.08900
C1196       C  0.38259056  0.38154515  0.77387864    -0.10500
C1197       C  0.37472439  0.37688017  0.95876509    -0.08900
C1198       C  0.37377610  0.37739977  0.97808164    -0.10500
C1199       C  0.37351777  0.27278013  0.87380466    -0.08900
C1200       C  0.37470304  0.29209783  0.87417222    -0.10500
C1201       C  0.23421769  0.44125589  0.80251875    -0.14200
C1202       C  0.23837065  0.42762297  0.81526987     0.09900
C1203       C  0.24410488  0.41216404  0.83043848     0.11700
C1204       C  0.24598407  0.39879762  0.84397270    -0.15000
C1205       C  0.30263224  0.51583866  0.80993002    -0.14200
C1206       C  0.31672811  0.51192031  0.82231553     0.09900
C1207       C  0.33419764  0.50680291  0.83549729     0.11700
C1208       C  0.35021012  0.50552312  0.84593870    -0.15000
C1209       C  0.14742360  0.59239595  0.76241015    -0.14200
C1210       C  0.16030841  0.57859590  0.76538984     0.09900
C1211       C  0.17556978  0.56350489  0.77181479     0.04500
C1212       C  0.18951765  0.55081150  0.77493106    -0.15000
C1213       C  0.16314123  0.49129649  0.64441937    -0.14200
C1214       C  0.17406156  0.48836518  0.65984303     0.09900
C1215       C  0.18746803  0.48224576  0.67673870     0.11700
C1216       C  0.19951759  0.47922979  0.69128380    -0.15000
C1217       C  0.30988439  0.45078361  0.73639024    -0.14200
C1218       C  0.32420146  0.43863785  0.74017625     0.09900
C1219       C  0.34110795  0.42473578  0.74515663     0.11700
C1220       C  0.35624375  0.41308122  0.74635976    -0.15000
C1221       C  0.26901314  0.56121209  0.70007900    -0.14200
C1222       C  0.26594220  0.57425428  0.68640103     0.09900
C1223       C  0.26010203  0.58822108  0.66982354     0.11700
C1224       C  0.25753585  0.59974522  0.65475509    -0.15000
C1225       C  0.43964703  0.23130322  0.80191047    -0.14200
C1226       C  0.42632386  0.23364642  0.81545666     0.09900
C1227       C  0.41141594  0.23862823  0.83147711     0.11700
C1228       C  0.39846555  0.24074706  0.84541115    -0.15000
C1229       C  0.52203999  0.30045293  0.81146731    -0.14200
C1230       C  0.51954012  0.31208984  0.82646887     0.09900
C1231       C  0.51394021  0.32510732  0.84388803     0.11700
C1232       C  0.51107513  0.33575159  0.85954521    -0.15000
C1233       C  0.54967874  0.19128073  0.76240366    -0.14200
C1234       C  0.56217778  0.17746258  0.75797981     0.09900
C1235       C  0.57701305  0.16143981  0.75281507     0.11700
C1236       C  0.58995494  0.14736725  0.75210516    -0.15000
C1237       C  0.48333129  0.20033635  0.69110835    -0.14200
C1238       C  0.48762016  0.18727912  0.67777693     0.09900
C1239       C  0.49315690  0.17190066  0.66240308     0.11700
C1240       C  0.49445193  0.15852656  0.64878124    -0.15000
C1241       C  0.55903790  0.26622501  0.69835843    -0.14200
C1242       C  0.57288206  0.26214988  0.68573002     0.09900
C1243       C  0.58913793  0.25666973  0.67118890     0.11700
C1244       C  0.60370227  0.25475801  0.65887449    -0.15000
C1245       C  0.41188955  0.35843555  0.74122027    -0.14200
C1246       C  0.42370705  0.34377592  0.73781160     0.09900
C1247       C  0.43766198  0.32742965  0.73137576     0.11700
C1248       C  0.44993960  0.31308864  0.72825176    -0.15000
C1249       C  0.44836793  0.80940433  0.23452135    -0.14200
C1250       C  0.43585815  0.82324716  0.23878189     0.09900
C1251       C  0.42138053  0.83951593  0.24411462     0.11700
C1252       C  0.40913656  0.85414465  0.24545535    -0.15000
C1253       C  0.51322300  0.80140136  0.30845917    -0.14200
C1254       C  0.50940262  0.81461938  0.32177685     0.09900
C1255       C  0.50452585  0.83061204  0.33674235     0.11700
C1256       C  0.50338015  0.84494414  0.34937004    -0.15000
C1257       C  0.55996187  0.77095915  0.19885540    -0.14200
C1258       C  0.57421431  0.76790357  0.18646242     0.09900
C1259       C  0.59034391  0.76196702  0.17205437     0.11700
C1260       C  0.60447023  0.75961035  0.15937618    -0.15000
C1261       C  0.43864008  0.73378145  0.29887037    -0.14200
C1262       C  0.42483695  0.73723708  0.31168908     0.09900
C1263       C  0.40893446  0.74172838  0.32687560     0.11700
C1264       C  0.39493754  0.74253641  0.33990090    -0.15000
C1265       C  0.47898873  0.69933841  0.18776665    -0.14200
C1266       C  0.48239791  0.68720146  0.17334475     0.09900
C1267       C  0.48903840  0.67350487  0.15682306     0.11700
C1268       C  0.49263917  0.66202032  0.14192428    -0.15000
C1269       C  0.55087724  0.69117495  0.27195577    -0.14200
C1270       C  0.56467381  0.67821692  0.26918917     0.09900
C1271       C  0.58117075  0.66422359  0.26327447     0.11700
C1272       C  0.59605276  0.65249606  0.26064401    -0.15000
C1273       C  0.05451738  0.05866371  0.97803305    -0.14200
C1274       C  0.06670172  0.07290926  0.98189388     0.09900
C1275       C  0.07983485  0.08963732  0.98905656     0.11700
C1276       C  0.09032995  0.10524697  0.99257808    -0.15000
C1277       C  0.98055237  0.05136355  0.05750315    -0.14200
C1278       C  0.98380425  0.06435148  0.07117782     0.09900
C1279       C  0.99005584  0.07972743  0.08627632     0.11700
C1280       C  0.99261631  0.09362327  0.09917773    -0.15000
C1281       C  0.06143927  0.97782302  0.05054000    -0.14200
C1282       C  0.07634784  0.98134155  0.06204269     0.09900
C1283       C  0.09393662  0.98845665  0.07407820     0.11700
C1284       C  0.11010074  0.99272621  0.08343140    -0.15000
C1285       C  0.90482757  0.90101928  0.00552325    -0.14200
C1286       C  0.91927874  0.91354648  0.00603128     0.09900
C1287       C  0.93555532  0.92847624  0.00994826     0.11700
C1288       C  0.94906591  0.94167407  0.01308471    -0.15000
C1289       C  0.94445504  0.01541503  0.94514718    -0.14200
C1290       C  0.93074946  0.01220107  0.93214072     0.09900
C1291       C  0.91478340  0.00793743  0.91692209     0.11700
C1292       C  0.90086106  0.00704213  0.90380110    -0.15000
C1293       C  0.00771678  0.90684160  0.89648088    -0.14200
C1294       C  0.00963104  0.91966176  0.91056687     0.09900
C1295       C  0.01516999  0.93442902  0.92653967     0.11700
C1296       C  0.01907964  0.94716803  0.94029202    -0.15000
C1297       C  0.97930772  0.55003103  0.56207736    -0.14200
C1298       C  0.98213902  0.56187271  0.57682463     0.09900
C1299       C  0.98811761  0.57465215  0.59424181     0.11700
C1300       C  0.99108776  0.58488753  0.61011934    -0.15000
C1301       C  0.06139355  0.47773150  0.55315028    -0.14200
C1302       C  0.07613496  0.48085463  0.56494916     0.09900
C1303       C  0.09322783  0.48718071  0.57803725     0.11700
C1304       C  0.10864983  0.49045464  0.58888437    -0.15000
C1305       C  0.00559317  0.40136231  0.40427573    -0.14200
C1306       C  0.00694709  0.41585295  0.41672727     0.09900
C1307       C  0.01196608  0.43219290  0.43130664     0.11700
C1308       C  0.01577154  0.44579358  0.44426023    -0.15000
C1309       C  0.05311043  0.55782160  0.48036511    -0.14200
C1310       C  0.06592035  0.57174556  0.48336642     0.09900
C1311       C  0.08056838  0.58761733  0.48955593     0.11700
C1312       C  0.09326654  0.60161339  0.49268013    -0.15000
C1313       C  0.94218995  0.51477947  0.45037480    -0.14200
C1314       C  0.92856844  0.51136841  0.43733285     0.09900
C1315       C  0.91293645  0.50673186  0.42187370     0.11700
C1316       C  0.89939658  0.50557254  0.40837225    -0.15000
C1317       C  0.94899032  0.44012910  0.51736759    -0.14200
C1318       C  0.93592621  0.42683007  0.51302470     0.09900
C1319       C  0.92027616  0.41177069  0.50743524     0.11700
C1320       C  0.90628132  0.39880560  0.50610071    -0.15000
C1321       C  0.55452965  0.97876073  0.55300122    -0.14200
C1322       C  0.56814019  0.98124372  0.56621481     0.09900
C1323       C  0.58383351  0.98668468  0.58128236     0.11700
C1324       C  0.59760581  0.98897065  0.59435718    -0.15000
C1325       C  0.55299760  0.05804387  0.47616849    -0.14200
C1326       C  0.56638985  0.07137490  0.47926229     0.09900
C1327       C  0.58176847  0.08648802  0.48554111     0.11700
C1328       C  0.59525956  0.09973833  0.48856013    -0.15000
C1329       C  0.48975796  0.10098594  0.59577482    -0.14200
C1330       C  0.48702731  0.08660520  0.58342969     0.09900
C1331       C  0.48125244  0.07057345  0.56880081     0.11700
C1332       C  0.47833042  0.05695814  0.55565074    -0.15000
C1333       C  0.44050375  0.01706416  0.44514053    -0.14200
C1334       C  0.42675264  0.01294036  0.43243532     0.09900
C1335       C  0.41061869  0.00752160  0.41775807     0.11700
C1336       C  0.39627955  0.00582127  0.40516992    -0.15000
C1337       C  0.44324371  0.94622698  0.51314392    -0.14200
C1338       C  0.43032837  0.93264133  0.50931703     0.09900
C1339       C  0.41558735  0.91640265  0.50471589     0.11700
C1340       C  0.40304736  0.90198195  0.50431725    -0.15000
C1341       C  0.50371185  0.90414974  0.40068337    -0.14200
C1342       C  0.50507469  0.91814734  0.41366276     0.09900
C1343       C  0.51008227  0.93403319  0.42870302     0.11700
C1344       C  0.51378936  0.94746945  0.44183373    -0.15000
C1345       C  0.56287129  0.54666998  0.98664566    -0.14200
C1346       C  0.57629812  0.55957473  0.99114001     0.09900
C1347       C  0.59135350  0.57529717  0.99665169     0.11700
C1348       C  0.60457166  0.58910152  0.99774734    -0.15000
C1349       C  0.49815700  0.60766198  0.08594332    -0.14200
C1350       C  0.49660034  0.59285237  0.07390303     0.09900
C1351       C  0.49096319  0.57644166  0.05963715     0.11700
C1352       C  0.48650303  0.56235167  0.04743931    -0.15000
C1353       C  0.54752034  0.48625421  0.06299949    -0.14200
C1354       C  0.56017503  0.49070120  0.07670696     0.09900
C1355       C  0.57536966  0.49621259  0.09234214     0.11700
C1356       C  0.58860003  0.49761297  0.10613653    -0.15000
C1357       C  0.43596156  0.45285174  0.02089748    -0.14200
C1358       C  0.42236317  0.43966938  0.01798931     0.09900
C1359       C  0.40805340  0.42331868  0.01224978     0.11700
C1360       C  0.39621939  0.40846174  0.00974521    -0.15000
C1361       C  0.45383643  0.52065415  0.93607341    -0.14200
C1362       C  0.44132811  0.51799497  0.92182433     0.09900
C1363       C  0.42620629  0.51239466  0.90620353     0.11700
C1364       C  0.41277337  0.50968400  0.89283228    -0.15000
C1365       C  0.52049892  0.43539900  0.95391546    -0.14200
C1366       C  0.51771693  0.42075912  0.94190698     0.09900
C1367       C  0.51211520  0.40404449  0.92802978     0.11700
C1368       C  0.50962439  0.38902389  0.91644137    -0.15000
loop_ 
_geom_bond_atom_site_label_1 
_geom_bond_atom_site_label_2 
_geom_bond_distance 
_geom_bond_site_symmetry_2 
_ccdc_geom_bond_type 
Zn1           O5   1.912   1_556  S
Zn1           O6   1.943       .  S
Zn1          O10   1.943       .  S
Zn1          O17   1.943       .  S
Zn2           O5   1.973   1_556  S
Zn2           O7   2.019       .  S
Zn2           O9   2.075       .  S
Zn2          O13   2.017   1_556  S
Zn3           O5   1.969   1_556  S
Zn3           O8   2.075       .  S
Zn3          O11   2.012       .  S
Zn3          O14   2.017   1_556  S
Zn4           O5   1.973       .  S
Zn4          O12   2.017       .  S
Zn4          O15   2.023       .  S
Zn4          O16   2.082       .  S
O6           C18   1.261       .  A
O7           C19   1.273       .  A
O8           C20   1.278       .  A
O9           C18   1.279       .  A
O10          C20   1.261       .  A
O11          C19   1.272       .  A
O12          C21   1.273       .  A
O13          C22   1.273       .  A
O14          C21   1.273       .  A
O15          C22   1.273       .  A
O16          C23   1.279       .  A
O17          C23   1.261   1_556  A
C18        C1365   1.433       .  S
C19        C1345   1.437       .  S
C20        C1361   1.434       .  S
C21        C1352   1.438       .  S
C22        C1353   1.440       .  S
C23        C1357   1.435       .  S
Zn24         O28   1.971       .  S
Zn24         O29   2.021       .  S
Zn24         O33   2.019   1_545  S
Zn24         O40   2.078       .  S
Zn25         O28   1.974       .  S
Zn25         O30   2.017   1_545  S
Zn25         O32   2.020       .  S
Zn25         O36   2.078       .  S
Zn26         O28   1.969   1_565  S
Zn26         O31   2.015       .  S
Zn26         O34   2.009       .  S
Zn26         O37   2.072       .  S
Zn27         O28   1.910       .  S
Zn27         O35   1.941       .  S
Zn27         O38   1.945       .  S
Zn27         O39   1.938       .  S
O29          C41   1.273       .  A
O30          C42   1.273       .  A
O31          C43   1.272       .  A
O32          C41   1.273       .  A
O33          C43   1.273       .  A
O34          C42   1.272       .  A
O35          C44   1.261   1_545  A
O36          C45   1.279       .  A
O37          C44   1.278       .  A
O38          C45   1.261       .  A
O39          C46   1.261       .  A
O40          C46   1.279       .  A
C41        C1333   1.439       .  S
C42        C1337   1.435       .  S
C43        C1344   1.437       .  S
C44        C1321   1.432       .  S
C45        C1332   1.435       .  S
C46        C1325   1.433       .  S
Zn47         O51   1.911       .  S
Zn47         O52   1.940       .  S
Zn47         O56   1.942       .  S
Zn47         O63   1.941       .  S
Zn48         O51   1.972       .  S
Zn48         O53   2.024       .  S
Zn48         O55   2.081       .  S
Zn48         O59   2.020   1_455  S
Zn49         O51   1.972       .  S
Zn49         O54   2.074       .  S
Zn49         O57   2.014       .  S
Zn49         O60   2.018   1_455  S
Zn50         O51   1.971   1_655  S
Zn50         O58   2.013       .  S
Zn50         O61   2.018       .  S
Zn50         O62   2.071       .  S
O52          C64   1.261       .  A
O53          C65   1.273       .  A
O54          C66   1.278       .  A
O55          C64   1.279       .  A
O56          C66   1.261       .  A
O57          C65   1.272       .  A
O58          C67   1.272       .  A
O59          C68   1.273       .  A
O60          C67   1.273       .  A
O61          C68   1.273       .  A
O62          C69   1.278       .  A
O63          C69   1.261   1_455  A
C64        C1309   1.435       .  S
C65        C1308   1.438       .  S
C66        C1301   1.433       .  S
C67        C1317   1.436       .  S
C68        C1313   1.438       .  S
C69        C1297   1.432       .  S
Zn70         O74   1.973   1_554  S
Zn70         O75   2.082       .  S
Zn70         O79   2.017   1_554  S
Zn70         O86   2.021   1_455  S
Zn71         O74   1.907   1_544  S
Zn71         O76   1.933       .  S
Zn71         O78   1.936       .  S
Zn71         O82   1.934       .  S
Zn72         O74   1.972   1_545  S
Zn72         O77   2.017   1_545  S
Zn72         O80   2.078       .  S
Zn72         O83   2.022   1_455  S
Zn73         O74   1.973   1_644  S
Zn73         O81   2.021   1_554  S
Zn73         O84   2.077       .  S
Zn73         O85   2.014   1_545  S
O75          C87   1.279       .  A
O76          C88   1.260   1_554  A
O77          C89   1.273       .  A
O78          C87   1.260   1_545  A
O79          C89   1.273       .  A
O80          C88   1.278       .  A
O81          C90   1.273       .  A
O82          C91   1.260   1_455  A
O83          C90   1.273       .  A
O84          C91   1.278       .  A
O85          C92   1.273       .  A
O86          C92   1.273       .  A
C87        C1281   1.434       .  S
C88        C1273   1.432       .  S
C89        C1296   1.436       .  S
C90        C1289   1.439       .  S
C91        C1277   1.432       .  S
C92        C1288   1.437       .  S
Zn93         O97   1.908       .  S
Zn93         O98   1.937       .  S
Zn93        O102   1.940       .  S
Zn93        O109   1.941       .  S
Zn94         O97   1.969       .  S
Zn94         O99   2.015       .  S
Zn94        O101   2.073       .  S
Zn94        O105   2.014       .  S
Zn95         O97   1.972       .  S
Zn95        O100   2.073       .  S
Zn95        O103   2.017       .  S
Zn95        O106   2.013       .  S
Zn96         O97   1.971       .  S
Zn96        O104   2.015       .  S
Zn96        O107   2.021       .  S
Zn96        O108   2.081       .  S
O98         C110   1.261       .  A
O99         C111   1.272       .  A
O100        C112   1.278       .  A
O101        C110   1.278       .  A
O102        C112   1.261       .  A
O103        C111   1.272       .  A
O104        C113   1.273       .  A
O105        C114   1.272       .  A
O106        C113   1.272       .  A
O107        C114   1.273       .  A
O108        C115   1.279       .  A
O109        C115   1.261       .  A
C110       C1269   1.432       .  S
C111       C1253   1.437       .  S
C112       C1257   1.432       .  S
C113       C1249   1.435       .  S
C114       C1261   1.437       .  S
C115       C1265   1.435       .  S
Zn116       O120   1.912       .  S
Zn116       O121   1.940       .  S
Zn116       O125   1.946       .  S
Zn116       O132   1.949       .  S
Zn117       O120   1.970       .  S
Zn117       O122   2.019       .  S
Zn117       O124   2.075       .  S
Zn117       O128   2.015       .  S
Zn118       O120   1.972       .  S
Zn118       O123   2.077       .  S
Zn118       O126   2.022       .  S
Zn118       O129   2.015       .  S
Zn119       O120   1.971       .  S
Zn119       O127   2.016       .  S
Zn119       O130   2.013       .  S
Zn119       O131   2.073       .  S
O121        C133   1.261       .  A
O122        C134   1.273       .  A
O123        C135   1.279       .  A
O124        C133   1.279       .  A
O125        C135   1.262       .  A
O126        C134   1.273       .  A
O127        C136   1.272       .  A
O128        C137   1.272       .  A
O129        C136   1.272       .  A
O130        C137   1.272       .  A
O131        C138   1.278       .  A
O132        C138   1.262       .  A
C133       C1248   1.433       .  S
C134       C1241   1.439       .  S
C135       C1229   1.435       .  S
C136       C1233   1.437       .  S
C137       C1237   1.436       .  S
C138       C1225   1.434       .  S
Zn139       O143   1.971       .  S
Zn139       O144   2.071       .  S
Zn139       O148   2.022       .  S
Zn139       O155   2.011       .  S
Zn140       O143   1.908       .  S
Zn140       O145   1.943       .  S
Zn140       O147   1.933       .  S
Zn140       O151   1.938       .  S
Zn141       O143   1.970       .  S
Zn141       O146   2.018       .  S
Zn141       O149   2.077       .  S
Zn141       O152   2.018       .  S
Zn142       O143   1.971       .  S
Zn142       O150   2.016       .  S
Zn142       O153   2.072       .  S
Zn142       O154   2.014       .  S
O144        C156   1.278       .  A
O145        C157   1.261       .  A
O146        C158   1.273       .  A
O147        C156   1.260       .  A
O148        C158   1.273       .  A
O149        C157   1.278       .  A
O150        C159   1.272       .  A
O151        C160   1.261       .  A
O152        C159   1.273       .  A
O153        C160   1.278       .  A
O154        C161   1.272       .  A
O155        C161   1.272       .  A
C156       C1212   1.430       .  S
C157       C1221   1.434       .  S
C158       C1205   1.439       .  S
C159       C1217   1.437       .  S
C160       C1216   1.432       .  S
C161       C1201   1.434       .  S
Zn162       O166   1.997       .  S
Zn162       O167   2.059       .  S
Zn162       O171   2.064       .  S
Zn162       O178   2.057       .  S
Zn163       O166   1.997       .  S
Zn163       O168   2.072       .  S
Zn163       O170   2.062       .  S
Zn163       O174   2.064       .  S
Zn164       O166   1.996       .  S
Zn164       O169   2.067       .  S
Zn164       O172   2.061       .  S
Zn164       O175   2.078       .  S
Zn165       O166   1.995       .  S
Zn165       O173   2.059       .  S
Zn165       O176   2.067       .  S
Zn165       O177   2.067       .  S
O167        C179   1.277       .  A
O168        C180   1.279       .  A
O169        C181   1.278       .  A
O170        C179   1.278       .  A
O171        C181   1.278       .  A
O172        C180   1.278       .  A
O173        C182   1.278       .  A
O174        C183   1.278       .  A
O175        C182   1.280       .  A
O176        C183   1.278       .  A
O177        C184   1.279       .  A
O178        C184   1.277       .  A
C179       C1193   1.458       .  S
C180       C1195   1.462       .  S
C181       C1190   1.461       .  S
C182       C1191   1.463       .  S
C183       C1200   1.461       .  S
C184       C1197   1.459       .  S
N185        C189   1.360       .  A
N185        C186   1.359       .  A
N185       C1194   1.420       .  S
C186       C1204   1.437       .  S
C186        C187   1.378       .  A
C187        C188   1.368       .  A
C187        H190   1.083       .  S
C188        C189   1.379       .  A
C188        H191   1.083       .  S
C189       C1188   1.439       .  S
N192        C196   1.361       .  A
N192        C193   1.361       .  A
N192       C1189   1.421       .  S
C193       C1364   1.439       .  S
C193        C194   1.378       .  A
C194        C195   1.368       .  A
C194        H197   1.083       .  S
C195        C196   1.379       .  A
C195        H198   1.083       .  S
C196       C1208   1.440       .  S
N199        C203   1.361       .  A
N199        C200   1.360       .  A
N199       C1192   1.422       .  S
C200       C1368   1.438       .  S
C200        C201   1.378       .  A
C201        C202   1.368       .  A
C201        H204   1.083       .  S
C202        C203   1.379       .  A
C202        H205   1.083       .  S
C203       C1232   1.439       .  S
N206        C210   1.361       .  A
N206        C207   1.360       .  A
N206       C1196   1.422       .  S
C207       C1220   1.439       .  S
C207        C208   1.379       .  A
C208        C209   1.368       .  A
C208        H211   1.083       .  S
C209        C210   1.378       .  A
C209        H212   1.083       .  S
C210       C1245   1.438       .  S
N213        C217   1.361       .  A
N213        C214   1.359       .  A
N213       C1199   1.421       .  S
C214       C1184   1.438       .  S
C214        C215   1.378       .  A
C215        C216   1.368       .  A
C215        H218   1.083       .  S
C216        C217   1.379       .  A
C216        H219   1.083       .  S
C217       C1228   1.438       .  S
N220        C224   1.360       .  A
N220        C221   1.361       .  A
N220       C1198   1.421   1_554  S
C221       C1360   1.440       .  S
C221        C222   1.379       .  A
C222        C223   1.368       .  A
C222        H225   1.083       .  S
C223        C224   1.378       .  A
C223        H226   1.083       .  S
C224       C1177   1.439       .  S
Zn227       O231   1.970       .  S
Zn227       O232   2.070       .  S
Zn227       O236   2.020       .  S
Zn227       O243   2.011   1_554  S
Zn228       O231   1.907       .  S
Zn228       O233   1.938       .  S
Zn228       O235   1.938       .  S
Zn228       O239   1.939       .  S
Zn229       O231   1.972       .  S
Zn229       O234   2.011       .  S
Zn229       O237   2.077       .  S
Zn229       O240   2.022   1_554  S
Zn230       O231   1.969   1_556  S
Zn230       O238   2.013       .  S
Zn230       O241   2.076       .  S
Zn230       O242   2.019       .  S
O232        C244   1.278       .  A
O233        C245   1.260       .  A
O234        C246   1.272       .  A
O235        C244   1.261       .  A
O236        C246   1.273       .  A
O237        C245   1.278       .  A
O238        C247   1.272       .  A
O239        C248   1.261   1_554  A
O240        C247   1.273       .  A
O241        C248   1.278       .  A
O242        C249   1.273       .  A
O243        C249   1.272       .  A
C244       C1173   1.430       .  S
C245       C1172   1.433       .  S
C246       C1180   1.437       .  S
C247       C1185   1.438       .  S
C248       C1168   1.433       .  S
C249       C1181   1.436       .  S
Zn250       O254   1.910       .  S
Zn250       O255   1.938       .  S
Zn250       O259   1.937       .  S
Zn250       O266   1.943       .  S
Zn251       O254   1.972       .  S
Zn251       O256   2.024       .  S
Zn251       O258   2.078       .  S
Zn251       O262   2.018       .  S
Zn252       O254   1.972       .  S
Zn252       O257   2.076       .  S
Zn252       O260   2.020       .  S
Zn252       O263   2.015       .  S
Zn253       O254   1.972       .  S
Zn253       O261   2.015       .  S
Zn253       O264   2.017       .  S
Zn253       O265   2.077       .  S
O255        C267   1.261       .  A
O256        C268   1.273       .  A
O257        C269   1.278       .  A
O258        C267   1.279       .  A
O259        C269   1.260       .  A
O260        C268   1.273       .  A
O261        C270   1.272       .  A
O262        C271   1.273       .  A
O263        C270   1.273       .  A
O264        C271   1.273       .  A
O265        C272   1.278       .  A
O266        C272   1.261       .  A
C267       C1149   1.433       .  S
C268       C1145   1.440       .  S
C269       C1161   1.432       .  S
C270       C1156   1.436       .  S
C271       C1141   1.437       .  S
C272       C1160   1.435       .  S
Zn273       O277   1.911       .  S
Zn273       O278   1.946       .  S
Zn273       O282   1.946       .  S
Zn273       O289   1.939       .  S
Zn274       O277   1.972       .  S
Zn274       O279   2.022       .  S
Zn274       O281   2.084       .  S
Zn274       O285   2.022       .  S
Zn275       O277   1.970       .  S
Zn275       O280   2.071       .  S
Zn275       O283   2.009       .  S
Zn275       O286   2.015       .  S
Zn276       O277   1.971       .  S
Zn276       O284   2.014       .  S
Zn276       O287   2.014       .  S
Zn276       O288   2.066       .  S
O278        C290   1.262       .  A
O279        C291   1.273       .  A
O280        C292   1.278       .  A
O281        C290   1.280       .  A
O282        C292   1.262       .  A
O283        C291   1.272       .  A
O284        C293   1.272       .  A
O285        C294   1.273       .  A
O286        C293   1.272       .  A
O287        C294   1.272       .  A
O288        C295   1.277       .  A
O289        C295   1.261       .  A
C290       C1124   1.437       .  S
C291       C1136   1.437       .  S
C292       C1129   1.434       .  S
C293       C1137   1.436       .  S
C294       C1128   1.438       .  S
C295       C1117   1.429       .  S
Zn296       O300   1.996       .  S
Zn296       O301   2.057       .  S
Zn296       O305   2.056       .  S
Zn296       O312   2.055       .  S
Zn297       O300   2.001       .  S
Zn297       O302   2.078       .  S
Zn297       O304   2.072       .  S
Zn297       O308   2.070       .  S
Zn298       O300   2.002       .  S
Zn298       O303   2.076       .  S
Zn298       O306   2.070       .  S
Zn298       O309   2.080       .  S
Zn299       O300   2.002       .  S
Zn299       O307   2.070       .  S
Zn299       O310   2.076       .  S
Zn299       O311   2.077       .  S
O301        C313   1.277       .  A
O302        C314   1.280       .  A
O303        C315   1.280       .  A
O304        C313   1.279       .  A
O305        C315   1.277       .  A
O306        C314   1.279       .  A
O307        C316   1.279       .  A
O308        C317   1.279       .  A
O309        C316   1.280       .  A
O310        C317   1.280       .  A
O311        C318   1.280       .  A
O312        C318   1.277       .  A
C313       C1107   1.461       .  S
C314       C1111   1.466       .  S
C315       C1105   1.461       .  S
C316       C1109   1.466       .  S
C317       C1114   1.465       .  S
C318       C1116   1.462       .  S
N319        C323   1.361   1_554  A
N319        C320   1.361   1_554  A
N319       C1115   1.422       .  S
C320       C1101   1.438       .  S
C320        C321   1.378       .  A
C321        C322   1.367       .  A
C321        H324   1.083       .  S
C322        C323   1.378       .  A
C322        H325   1.083       .  S
C323       C1348   1.439       .  S
N326        C330   1.361       .  A
N326        C327   1.361       .  A
N326       C1106   1.421       .  S
C327       C1356   1.441       .  S
C327        C328   1.379       .  A
C328        C329   1.368       .  A
C328        H331   1.083       .  S
C329        C330   1.378       .  A
C329        H332   1.083       .  S
C330       C1157   1.439       .  S
N333        C337   1.361       .  A
N333        C334   1.361       .  A
N333       C1110   1.424       .  S
C334       C1100   1.437       .  S
C334        C335   1.378       .  A
C335        C336   1.366       .  A
C335        H338   1.083       .  S
C336        C337   1.378       .  A
C336        H339   1.083       .  S
C337       C1152   1.437       .  S
N340        C344   1.361       .  A
N340        C341   1.360       .  A
N340       C1108   1.421       .  S
C341       C1349   1.440       .  S
C341        C342   1.379       .  A
C342        C343   1.368       .  A
C342        H345   1.083       .  S
C343        C344   1.378       .  A
C343        H346   1.083       .  S
C344       C1268   1.439       .  S
N347        C351   1.361       .  A
N347        C348   1.361       .  A
N347       C1113   1.424       .  S
C348       C1096   1.436       .  S
C348        C349   1.378       .  A
C349        C350   1.365       .  A
C349        H352   1.083       .  S
C350        C351   1.378       .  A
C350        H353   1.083       .  S
C351       C1260   1.436       .  S
N354        C358   1.362       .  A
N354        C355   1.362       .  A
N354       C1112   1.424       .  S
C355       C1164   1.437       .  S
C355        C356   1.378       .  A
C356        C357   1.365       .  A
C356        H359   1.083       .  S
C357        C358   1.378       .  A
C357        H360   1.083       .  S
C358       C1272   1.436       .  S
Zn361       O365   1.910   1_554  S
Zn361       O366   1.944       .  S
Zn361       O370   1.940       .  S
Zn361       O377   1.941       .  S
Zn362       O365   1.971       .  S
Zn362       O367   2.016       .  S
Zn362       O369   2.076       .  S
Zn362       O373   2.016       .  S
Zn363       O365   1.971   1_554  S
Zn363       O368   2.071       .  S
Zn363       O371   2.012   1_554  S
Zn363       O374   2.016       .  S
Zn364       O365   1.971   1_554  S
Zn364       O372   2.018       .  S
Zn364       O375   2.017   1_554  S
Zn364       O376   2.071       .  S
O366        C378   1.261   1_554  A
O367        C379   1.273       .  A
O368        C380   1.277       .  A
O369        C378   1.278       .  A
O370        C380   1.261       .  A
O371        C379   1.272       .  A
O372        C381   1.272       .  A
O373        C382   1.272       .  A
O374        C381   1.272       .  A
O375        C382   1.273       .  A
O376        C383   1.278       .  A
O377        C383   1.261       .  A
C378       C1104   1.434       .  S
C379       C1089   1.435       .  S
C380       C1093   1.432       .  S
C381       C1081   1.437       .  S
C382       C1085   1.436       .  S
C383       C1097   1.432       .  S
Zn384       O388   2.000       .  S
Zn384       O389   2.072       .  S
Zn384       O393   2.082       .  S
Zn384       O400   2.069       .  S
Zn385       O388   2.000       .  S
Zn385       O390   2.071       .  S
Zn385       O392   2.073       .  S
Zn385       O396   2.065       .  S
Zn386       O388   1.996       .  S
Zn386       O391   2.056       .  S
Zn386       O394   2.061       .  S
Zn386       O397   2.061       .  S
Zn387       O388   2.000       .  S
Zn387       O395   2.064       .  S
Zn387       O398   2.070       .  S
Zn387       O399   2.077       .  S
O389        C401   1.279       .  A
O390        C402   1.279       .  A
O391        C403   1.277       .  A
O392        C401   1.280       .  A
O393        C403   1.281       .  A
O394        C402   1.277       .  A
O395        C404   1.278       .  A
O396        C405   1.278       .  A
O397        C404   1.277       .  A
O398        C405   1.279       .  A
O399        C406   1.280       .  A
O400        C406   1.279       .  A
C401       C1073   1.464       .  S
C402       C1069   1.462       .  S
C403       C1078   1.463       .  S
C404       C1075   1.460       .  S
C405       C1072   1.463       .  S
C406       C1079   1.465       .  S
N407        C411   1.361       .  A
N407        C408   1.360       .  A
N407       C1074   1.423   1_655  S
C408       C1300   1.436       .  S
C408        C409   1.378       .  A
C409        C410   1.367       .  A
C409        H412   1.083       .  S
C410        C411   1.379       .  A
C410        H413   1.083       .  S
C411       C1065   1.438       .  S
N414        C418   1.361       .  A
N414        C415   1.361       .  A
N414       C1077   1.422       .  S
C415       C1125   1.439       .  S
C415        C416   1.379       .  A
C416        C417   1.367       .  A
C416        H419   1.083       .  S
C417        C418   1.378       .  A
C417        H420   1.083       .  S
C418       C1061   1.437       .  S
N421        C425   1.360       .  A
N421        C422   1.362       .  A
N421       C1070   1.422       .  S
C422       C1312   1.439       .  S
C422        C423   1.379       .  A
C423        C424   1.367       .  A
C423        H426   1.083       .  S
C424        C425   1.378       .  A
C424        H427   1.083       .  S
C425       C1133   1.438       .  S
N428        C432   1.361       .  A
N428        C429   1.361       .  A
N428       C1080   1.424       .  S
C429       C1209   1.435       .  S
C429        C430   1.378       .  A
C430        C431   1.365       .  A
C430        H433   1.083       .  S
C431        C432   1.378       .  A
C431        H434   1.083       .  S
C432       C1057   1.436       .  S
N435        C439   1.360       .  A
N435        C436   1.360       .  A
N435       C1071   1.422       .  S
C436       C1304   1.438       .  S
C436        C437   1.379       .  A
C437        C438   1.367       .  A
C437        H440   1.083       .  S
C438        C439   1.378       .  A
C438        H441   1.083       .  S
C439       C1213   1.437       .  S
N442        C446   1.360       .  A
N442        C443   1.361       .  A
N442       C1076   1.421       .  S
C443       C1224   1.439       .  S
C443        C444   1.378       .  A
C444        C445   1.367       .  A
C444        H447   1.083       .  S
C445        C446   1.378       .  A
C445        H448   1.083       .  S
C446       C1140   1.438       .  S
Zn449       O453   1.911   1_455  S
Zn449       O454   1.943       .  S
Zn449       O458   1.941       .  S
Zn449       O465   1.936   1_455  S
Zn450       O453   1.972   1_455  S
Zn450       O455   2.018       .  S
Zn450       O457   2.073       .  S
Zn450       O461   2.017   1_455  S
Zn451       O453   1.969   1_455  S
Zn451       O456   2.073       .  S
Zn451       O459   2.017       .  S
Zn451       O462   2.012   1_455  S
Zn452       O453   1.974       .  S
Zn452       O460   2.027       .  S
Zn452       O463   2.018       .  S
Zn452       O464   2.082       .  S
O454        C466   1.261       .  A
O455        C467   1.273       .  A
O456        C468   1.278       .  A
O457        C466   1.278       .  A
O458        C468   1.261       .  A
O459        C467   1.272       .  A
O460        C469   1.274       .  A
O461        C470   1.272       .  A
O462        C469   1.272       .  A
O463        C470   1.273       .  A
O464        C471   1.279       .  A
O465        C471   1.260       .  A
C466       C1060   1.433       .  S
C467       C1045   1.437       .  S
C468       C1064   1.433       .  S
C469       C1049   1.438       .  S
C470       C1053   1.436       .  S
C471       C1068   1.433       .  S
Zn472       O476   1.990       .  S
Zn472       O477   2.049       .  S
Zn472       O481   2.055       .  S
Zn472       O488   2.052       .  S
Zn473       O476   1.991       .  S
Zn473       O478   2.057       .  S
Zn473       O480   2.058       .  S
Zn473       O484   2.056       .  S
Zn474       O476   1.989       .  S
Zn474       O479   2.055       .  S
Zn474       O482   2.053       .  S
Zn474       O485   2.060       .  S
Zn475       O476   1.990       .  S
Zn475       O483   2.053       .  S
Zn475       O486   2.054       .  S
Zn475       O487   2.059       .  S
O477        C489   1.276       .  A
O478        C490   1.277       .  A
O479        C491   1.277       .  A
O480        C489   1.277       .  A
O481        C491   1.277       .  A
O482        C490   1.276       .  A
O483        C492   1.276       .  A
O484        C493   1.277       .  A
O485        C492   1.277       .  A
O486        C493   1.277       .  A
O487        C494   1.277       .  A
O488        C494   1.276       .  A
C489       C1036   1.455       .  S
C490       C1042   1.456       .  S
C491       C1033   1.456       .  S
C492       C1043   1.456       .  S
C493       C1037   1.456       .  S
C494       C1039   1.455       .  S
N495        C499   1.358   1_556  A
N495        C496   1.359   1_556  A
N495       C1040   1.418       .  S
C496       C1084   1.439       .  S
C496        C497   1.379       .  A
C497        C498   1.371       .  A
C497        H500   1.083       .  S
C498        C499   1.379       .  A
C498        H501   1.083       .  S
C499       C1285   1.439       .  S
N502        C506   1.359       .  A
N502        C503   1.359       .  A
N502       C1041   1.418       .  S
C503       C1029   1.441       .  S
C503        C504   1.379       .  A
C504        C505   1.371       .  A
C504        H507   1.083       .  S
C505        C506   1.379       .  A
C505        H508   1.083       .  S
C506       C1052   1.441       .  S
N509        C513   1.358       .  A
N509        C510   1.358       .  A
N509       C1035   1.418       .  S
C510       C1088   1.439       .  S
C510        C511   1.379       .  A
C511        C512   1.370       .  A
C511        H514   1.083       .  S
C512        C513   1.379       .  A
C512        H515   1.083       .  S
C513       C1056   1.439       .  S
N516        C520   1.358       .  A
N516        C517   1.358       .  A
N516       C1034   1.418       .  S
C517       C1025   1.438       .  S
C517        C518   1.379       .  A
C518        C519   1.369       .  A
C518        H521   1.083       .  S
C519        C520   1.379       .  A
C519        H522   1.083       .  S
C520       C1092   1.438       .  S
N523        C527   1.359   1_655  A
N523        C524   1.359   1_655  A
N523       C1038   1.418       .  S
C524       C1048   1.440       .  S
C524        C525   1.379       .  A
C525        C526   1.369       .  A
C525        H528   1.083       .  S
C526        C527   1.379       .  A
C526        H529   1.083       .  S
C527       C1293   1.439       .  S
N530        C534   1.359   1_565  A
N530        C531   1.358   1_565  A
N530       C1044   1.418       .  S
C531       C1024   1.438       .  S
C531        C532   1.379       .  A
C532        C533   1.370       .  A
C532        H535   1.083       .  S
C533        C534   1.379       .  A
C533        H536   1.083       .  S
C534       C1292   1.440       .  S
Zn537       O541   1.998       .  S
Zn537       O542   2.067       .  S
Zn537       O546   2.067       .  S
Zn537       O553   2.057       .  S
Zn538       O541   1.994       .  S
Zn538       O543   2.062       .  S
Zn538       O545   2.061       .  S
Zn538       O549   2.066       .  S
Zn539       O541   1.996       .  S
Zn539       O544   2.062       .  S
Zn539       O547   2.067       .  S
Zn539       O550   2.069       .  S
Zn540       O541   1.996       .  S
Zn540       O548   2.058       .  S
Zn540       O551   2.065       .  S
Zn540       O552   2.061       .  S
O542        C554   1.278       .  A
O543        C555   1.278       .  A
O544        C556   1.278       .  A
O545        C554   1.278       .  A
O546        C556   1.278       .  A
O547        C555   1.279       .  A
O548        C557   1.277       .  A
O549        C558   1.278       .  A
O550        C557   1.279       .  A
O551        C558   1.278       .  A
O552        C559   1.278       .  A
O553        C559   1.277       .  A
C554       C1017   1.460       .  S
C555       C1014   1.461       .  S
C556       C1019   1.461       .  S
C557       C1009   1.460       .  S
C558       C1011   1.461       .  S
C559       C1015   1.457       .  S
N560        C564   1.360       .  A
N560        C561   1.360       .  A
N560       C1013   1.422   1_565  S
C561       C1324   1.437       .  S
C561        C562   1.378       .  A
C562        C563   1.366       .  A
C562        H565   1.083       .  S
C563        C564   1.378       .  A
C563        H566   1.083       .  S
C564       C1008   1.436       .  S
N567        C571   1.360       .  A
N567        C568   1.362       .  A
N567       C1012   1.422       .  S
C568       C1328   1.439       .  S
C568        C569   1.379       .  A
C569        C570   1.367       .  A
C569        H572   1.083       .  S
C570        C571   1.378       .  A
C570        H573   1.083       .  S
C571       C1004   1.438       .  S
N574        C578   1.360       .  A
N574        C575   1.361       .  A
N574       C1020   1.421       .  S
C575       C1000   1.438       .  S
C575        C576   1.379       .  A
C576        C577   1.367       .  A
C576        H579   1.083       .  S
C577        C578   1.378       .  A
C577        H580   1.083       .  S
C578       C1236   1.438       .  S
N581        C585   1.360       .  A
N581        C582   1.361       .  A
N581       C1010   1.421       .  S
C582       C1329   1.439       .  S
C582        C583   1.379       .  A
C583        C584   1.367       .  A
C583        H586   1.083       .  S
C584        C585   1.378       .  A
C584        H587   1.083       .  S
C585       C1240   1.438       .  S
N588        C592   1.360       .  A
N588        C589   1.358       .  A
N588       C1018   1.421       .  S
C589        C992   1.436       .  S
C589        C590   1.378       .  A
C590        C591   1.367       .  A
C590        H593   1.083       .  S
C591        C592   1.379       .  A
C591        H594   1.083       .  S
C592        C996   1.437       .  S
N595        C599   1.360       .  A
N595        C596   1.360       .  A
N595       C1016   1.419       .  S
C596        C985   1.442       .  S
C596        C597   1.379       .  A
C597        C598   1.370       .  A
C597        H600   1.083       .  S
C598        C599   1.379       .  A
C598        H601   1.083       .  S
C599       C1244   1.442       .  S
Zn602       O606   1.971   1_565  S
Zn602       O607   2.071       .  S
Zn602       O611   2.013       .  S
Zn602       O618   2.021       .  S
Zn603       O606   1.910       .  S
Zn603       O608   1.941       .  S
Zn603       O610   1.941       .  S
Zn603       O614   1.940       .  S
Zn604       O606   1.971       .  S
Zn604       O609   2.016   1_545  S
Zn604       O612   2.076       .  S
Zn604       O615   2.014       .  S
Zn605       O606   1.971       .  S
Zn605       O613   2.015       .  S
Zn605       O616   2.074       .  S
Zn605       O617   2.018   1_545  S
O607        C619   1.278       .  A
O608        C620   1.261       .  A
O609        C621   1.272       .  A
O610        C619   1.261   1_545  A
O611        C621   1.272       .  A
O612        C620   1.278       .  A
O613        C622   1.273       .  A
O614        C623   1.261       .  A
O615        C622   1.273       .  A
O616        C623   1.278       .  A
O617        C624   1.272       .  A
O618        C624   1.273       .  A
C619       C1005   1.432       .  S
C620        C997   1.433       .  S
C621       C1028   1.435       .  S
C622       C1021   1.435       .  S
C623        C993   1.433       .  S
C624       C1032   1.439       .  S
Zn625       O629   1.970       .  S
Zn625       O630   2.078       .  S
Zn625       O634   2.023       .  S
Zn625       O641   2.017       .  S
Zn626       O629   1.910       .  S
Zn626       O631   1.932       .  S
Zn626       O633   1.944       .  S
Zn626       O637   1.946       .  S
Zn627       O629   1.971       .  S
Zn627       O632   2.020       .  S
Zn627       O635   2.073       .  S
Zn627       O638   2.016       .  S
Zn628       O629   1.970       .  S
Zn628       O636   2.008       .  S
Zn628       O639   2.070       .  S
Zn628       O640   2.013       .  S
O630        C642   1.279       .  A
O631        C643   1.260       .  A
O632        C644   1.273       .  A
O633        C642   1.261       .  A
O634        C644   1.273       .  A
O635        C643   1.278       .  A
O636        C645   1.271       .  A
O637        C646   1.261       .  A
O638        C645   1.273       .  A
O639        C646   1.277       .  A
O640        C647   1.272       .  A
O641        C647   1.272       .  A
C642        C981   1.435       .  S
C643        C977   1.430       .  S
C644        C988   1.440       .  S
C645        C989   1.434       .  S
C646        C973   1.433       .  S
C647       C1001   1.436       .  S
Zn648       O652   1.991       .  S
Zn648       O653   2.052       .  S
Zn648       O657   2.055       .  S
Zn648       O664   2.052       .  S
Zn649       O652   1.994       .  S
Zn649       O654   2.063       .  S
Zn649       O656   2.063       .  S
Zn649       O660   2.069       .  S
Zn650       O652   1.991       .  S
Zn650       O655   2.054       .  S
Zn650       O658   2.063       .  S
Zn650       O661   2.054       .  S
Zn651       O652   1.991       .  S
Zn651       O659   2.052       .  S
Zn651       O662   2.049       .  S
Zn651       O663   2.058       .  S
O653        C665   1.277       .  A
O654        C666   1.278       .  A
O655        C667   1.276       .  A
O656        C665   1.278       .  A
O657        C667   1.277       .  A
O658        C666   1.278       .  A
O659        C668   1.277       .  A
O660        C669   1.279       .  A
O661        C668   1.277       .  A
O662        C669   1.276       .  A
O663        C670   1.277       .  A
O664        C670   1.276       .  A
C665        C965   1.457       .  S
C666        C968   1.460       .  S
C667        C971   1.455       .  S
C668        C962   1.454       .  S
C669        C963   1.458       .  S
C670        C969   1.456       .  S
N671        C675   1.360       .  A
N671        C672   1.361       .  A
N671        C966   1.419       .  S
C672       C1121   1.441       .  S
C672        C673   1.378       .  A
C673        C674   1.369       .  A
C673        H676   1.083       .  S
C674        C675   1.379       .  A
C674        H677   1.083       .  S
C675        C957   1.442       .  S
N678        C682   1.358       .  A
N678        C679   1.359       .  A
N678        C961   1.417       .  S
C679       C1341   1.439       .  S
C679        C680   1.379       .  A
C680        C681   1.370       .  A
C680        H683   1.083       .  S
C681        C682   1.379       .  A
C681        H684   1.083       .  S
C682       C1256   1.439       .  S
N685        C689   1.358       .  A
N685        C686   1.358       .  A
N685        C964   1.420       .  S
C686       C1120   1.435       .  S
C686        C687   1.378       .  A
C687        C688   1.368       .  A
C687        H690   1.083       .  S
C688        C689   1.379       .  A
C688        H691   1.083       .  S
C689       C1340   1.436       .  S
N692        C696   1.359       .  A
N692        C693   1.361       .  A
N692        C967   1.421       .  S
C693       C1132   1.439       .  S
C693        C694   1.379       .  A
C694        C695   1.368       .  A
C694        H697   1.083       .  S
C695        C696   1.379       .  A
C695        H698   1.083       .  S
C696       C1264   1.439       .  S
N699        C703   1.358       .  A
N699        C700   1.358       .  A
N699        C972   1.418       .  S
C700       C1252   1.438       .  S
C700        C701   1.379       .  A
C701        C702   1.370       .  A
C701        H704   1.083       .  S
C702        C703   1.379       .  A
C702        H705   1.083       .  S
C703        C956   1.439       .  S
N706        C710   1.360   1_565  A
N706        C707   1.360   1_565  A
N706        C970   1.418       .  S
C707       C1336   1.441       .  S
C707        C708   1.379       .  A
C708        C709   1.370       .  A
C708        H711   1.083       .  S
C709        C710   1.379       .  A
C709        H712   1.083       .  S
C710        C949   1.441       .  S
Zn713       O717   1.910   1_545  S
Zn713       O718   1.937       .  S
Zn713       O722   1.938       .  S
Zn713       O729   1.936       .  S
Zn714       O717   1.972   1_545  S
Zn714       O719   2.017       .  S
Zn714       O721   2.071       .  S
Zn714       O725   2.016   1_545  S
Zn715       O717   1.968   1_545  S
Zn715       O720   2.078       .  S
Zn715       O723   2.020       .  S
Zn715       O726   2.015   1_545  S
Zn716       O717   1.975       .  S
Zn716       O724   2.027       .  S
Zn716       O727   2.019       .  S
Zn716       O728   2.082       .  S
O718        C730   1.260       .  A
O719        C731   1.273       .  A
O720        C732   1.278       .  A
O721        C730   1.278       .  A
O722        C732   1.260       .  A
O723        C731   1.273       .  A
O724        C733   1.274       .  A
O725        C734   1.272       .  A
O726        C733   1.273       .  A
O727        C734   1.273       .  A
O728        C735   1.279       .  A
O729        C735   1.260   1_545  A
C730        C945   1.431       .  S
C731        C952   1.438       .  S
C732        C941   1.433       .  S
C733        C960   1.439       .  S
C734        C953   1.437       .  S
C735        C940   1.433       .  S
Zn736       O740   1.998       .  S
Zn736       O741   2.065       .  S
Zn736       O745   2.066       .  S
Zn736       O752   2.063       .  S
Zn737       O740   1.999       .  S
Zn737       O742   2.068       .  S
Zn737       O744   2.072       .  S
Zn737       O748   2.075       .  S
Zn738       O740   2.000       .  S
Zn738       O743   2.068       .  S
Zn738       O746   2.075       .  S
Zn738       O749   2.067       .  S
Zn739       O740   1.999       .  S
Zn739       O747   2.066       .  S
Zn739       O750   2.065       .  S
Zn739       O751   2.076       .  S
O741        C753   1.278       .  A
O742        C754   1.278       .  A
O743        C755   1.279       .  A
O744        C753   1.279       .  A
O745        C755   1.278       .  A
O746        C754   1.279       .  A
O747        C756   1.278       .  A
O748        C757   1.280       .  A
O749        C756   1.279       .  A
O750        C757   1.278       .  A
O751        C758   1.279       .  A
O752        C758   1.278       .  A
C753        C930   1.463       .  S
C754        C931   1.464       .  S
C755        C928   1.462       .  S
C756        C935   1.462       .  S
C757        C925   1.464       .  S
C758        C933   1.464       .  S
N759        C763   1.361   1_554  A
N759        C760   1.361   1_554  A
N759        C934   1.423       .  S
C760       C1165   1.437       .  S
C760        C761   1.378       .  A
C761        C762   1.366       .  A
C761        H764   1.083       .  S
C762        C763   1.378       .  A
C762        H765   1.083       .  S
C763       C1276   1.437       .  S
N766        C770   1.360   1_545  A
N766        C767   1.360   1_545  A
N766        C927   1.422       .  S
C767        C937   1.439       .  S
C767        C768   1.378       .  A
C768        C769   1.368       .  A
C768        H771   1.083       .  S
C769        C770   1.379       .  A
C769        H772   1.083       .  S
C770       C1284   1.440       .  S
N773        C777   1.361   1_455  A
N773        C774   1.361   1_455  A
N773        C929   1.423       .  S
C774        C924   1.437       .  S
C774        C775   1.378       .  A
C775        C776   1.366       .  A
C775        H778   1.083       .  S
C776        C777   1.378       .  A
C776        H779   1.083       .  S
C777       C1280   1.437       .  S
N780        C784   1.361       .  A
N780        C781   1.361       .  A
N780        C932   1.423       .  S
C781        C944   1.438       .  S
C781        C782   1.378       .  A
C782        C783   1.366       .  A
C782        H785   1.083       .  S
C783        C784   1.378       .  A
C783        H786   1.083       .  S
C784        C917   1.437       .  S
N787        C791   1.360       .  A
N787        C788   1.360       .  A
N787        C926   1.423       .  S
C788       C1169   1.437       .  S
C788        C789   1.378       .  A
C789        C790   1.366       .  A
C789        H792   1.083       .  S
C790        C791   1.378       .  A
C790        H793   1.083       .  S
C791        C916   1.437       .  S
N794        C798   1.360       .  A
N794        C795   1.360       .  A
N794        C936   1.422       .  S
C795        C948   1.435       .  S
C795        C796   1.378       .  A
C796        C797   1.366       .  A
C796        H799   1.083       .  S
C797        C798   1.378       .  A
C797        H800   1.083       .  S
C798       C1176   1.435       .  S
Zn801       O805   1.994       .  S
Zn801       O806   2.065       .  S
Zn801       O810   2.059       .  S
Zn801       O817   2.061       .  S
Zn802       O805   1.992       .  S
Zn802       O807   2.057       .  S
Zn802       O809   2.061       .  S
Zn802       O813   2.057       .  S
Zn803       O805   1.994       .  S
Zn803       O808   2.061       .  S
Zn803       O811   2.057       .  S
Zn803       O814   2.059       .  S
Zn804       O805   1.994       .  S
Zn804       O812   2.056       .  S
Zn804       O815   2.061       .  S
Zn804       O816   2.056       .  S
O806        C818   1.278       .  A
O807        C819   1.277       .  A
O808        C820   1.278       .  A
O809        C818   1.278       .  A
O810        C820   1.277       .  A
O811        C819   1.277       .  A
O812        C821   1.277       .  A
O813        C822   1.277       .  A
O814        C821   1.277       .  A
O815        C822   1.277       .  A
O816        C823   1.277       .  A
O817        C823   1.278       .  A
C818        C909   1.460       .  S
C819        C907   1.457       .  S
C820        C902   1.458       .  S
C821        C912   1.457       .  S
C822        C905   1.457       .  S
C823        C903   1.458       .  S
N824        C828   1.359       .  A
N824        C825   1.359       .  A
N824        C908   1.419       .  S
C825        C900   1.439       .  S
C825        C826   1.379       .  A
C826        C827   1.369       .  A
C826        H829   1.083       .  S
C827        C828   1.379       .  A
C827        H830   1.083       .  S
C828       C1144   1.439       .  S
N831        C835   1.359       .  A
N831        C832   1.358       .  A
N831        C906   1.419       .  S
C832        C896   1.438       .  S
C832        C833   1.379       .  A
C833        C834   1.369       .  A
C833        H836   1.083       .  S
C834        C835   1.379       .  A
C834        H837   1.083       .  S
C835        C976   1.438       .  S
N838        C842   1.360   1_655  A
N838        C839   1.360   1_655  A
N838        C911   1.419       .  S
C839        C889   1.440       .  S
C839        C840   1.379       .  A
C840        C841   1.369       .  A
C840        H843   1.083       .  S
C841        C842   1.379       .  A
C841        H844   1.083       .  S
C842       C1305   1.440       .  S
N845        C849   1.359       .  A
N845        C846   1.359       .  A
N845        C904   1.420       .  S
C846       C1320   1.437       .  S
C846        C847   1.378       .  A
C847        C848   1.367       .  A
C847        H850   1.083       .  S
C848        C849   1.378       .  A
C848        H851   1.083       .  S
C849        C980   1.435       .  S
N852        C856   1.360       .  A
N852        C853   1.360       .  A
N852        C901   1.420       .  S
C853       C1148   1.441       .  S
C853        C854   1.379       .  A
C854        C855   1.369       .  A
C854        H857   1.083       .  S
C855        C856   1.379       .  A
C855        H858   1.083       .  S
C856       C1316   1.441       .  S
N859        C863   1.361       .  A
N859        C860   1.359       .  A
N859        C910   1.421       .  S
C860       C1153   1.438       .  S
C860        C861   1.378       .  A
C861        C862   1.368       .  A
C861        H864   1.083       .  S
C862        C863   1.379       .  A
C862        H865   1.083       .  S
C863        C984   1.439       .  S
Zn866       O870   1.908       .  S
Zn866       O871   1.930       .  S
Zn866       O875   1.941       .  S
Zn866       O882   1.941       .  S
Zn867       O870   1.970       .  S
Zn867       O872   2.018   1_455  S
Zn867       O874   2.079       .  S
Zn867       O878   2.019       .  S
Zn868       O870   1.971   1_655  S
Zn868       O873   2.074       .  S
Zn868       O876   2.018       .  S
Zn868       O879   2.017       .  S
Zn869       O870   1.971       .  S
Zn869       O877   2.013   1_455  S
Zn869       O880   2.017       .  S
Zn869       O881   2.073       .  S
O871        C883   1.260       .  A
O872        C884   1.273       .  A
O873        C885   1.278       .  A
O874        C883   1.279       .  A
O875        C885   1.261   1_455  A
O876        C884   1.273       .  A
O877        C886   1.272       .  A
O878        C887   1.273       .  A
O879        C886   1.272       .  A
O880        C887   1.273       .  A
O881        C888   1.278       .  A
O882        C888   1.261       .  A
C883        C913   1.431       .  S
C884        C897   1.437       .  S
C885        C921   1.433       .  S
C886        C893   1.436       .  S
C887        C892   1.437       .  S
C888        C920   1.433       .  S
C889        C890   1.208       .  T
C890        C891   1.416       .  S
C891        C892   1.208       .  T
C893        C894   1.207       .  T
C894        C895   1.414       .  S
C895        C896   1.206       .  T
C897        C898   1.208       .  T
C898        C899   1.416       .  S
C899        C900   1.207       .  T
C901        C902   1.219       .  T
C903        C904   1.219       .  T
C905        C906   1.219       .  T
C907        C908   1.218       .  T
C909        C910   1.220       .  T
C911        C912   1.219       .  T
C913        C914   1.206       .  T
C914        C915   1.415       .  S
C915        C916   1.207       .  T
C917        C918   1.207       .  T
C918        C919   1.415       .  S
C919        C920   1.207       .  T
C921        C922   1.207       .  T
C922        C923   1.414       .  S
C923        C924   1.206       .  T
C925        C926   1.223       .  T
C927        C928   1.222       .  T
C929        C930   1.222       .  T
C931        C932   1.223       .  T
C933        C934   1.223       .  T
C935        C936   1.221       .  T
C937        C938   1.207       .  T
C938        C939   1.416       .  S
C939        C940   1.208       .  T
C941        C942   1.207       .  T
C942        C943   1.416       .  S
C943        C944   1.207       .  T
C945        C946   1.206       .  T
C946        C947   1.413       .  S
C947        C948   1.205       .  T
C949        C950   1.208       .  T
C950        C951   1.417       .  S
C951        C952   1.209       .  T
C953        C954   1.208       .  T
C954        C955   1.415       .  S
C955        C956   1.207       .  T
C957        C958   1.209       .  T
C958        C959   1.418       .  S
C959        C960   1.209       .  T
C961        C962   1.217       .  T
C963        C964   1.219       .  T
C965        C966   1.219       .  T
C967        C968   1.220       .  T
C969        C970   1.218       .  T
C971        C972   1.218       .  T
C973        C974   1.207       .  T
C974        C975   1.414       .  S
C975        C976   1.206       .  T
C977        C978   1.205       .  T
C978        C979   1.413       .  S
C979        C980   1.205       .  T
C981        C982   1.208       .  T
C982        C983   1.416       .  S
C983        C984   1.208       .  T
C985        C986   1.209       .  T
C986        C987   1.418       .  S
C987        C988   1.209       .  T
C989        C990   1.206       .  T
C990        C991   1.413       .  S
C991        C992   1.205       .  T
C993        C994   1.207       .  T
C994        C995   1.415       .  S
C995        C996   1.207       .  T
C997        C998   1.207       .  T
C998        C999   1.416       .  S
C999       C1000   1.207       .  T
C1001      C1002   1.208       .  T
C1002      C1003   1.415       .  S
C1003      C1004   1.207       .  T
C1005      C1006   1.206       .  T
C1006      C1007   1.414       .  S
C1007      C1008   1.206       .  T
C1009      C1010   1.221       .  T
C1011      C1012   1.221       .  T
C1013      C1014   1.221       .  T
C1015      C1016   1.219       .  T
C1017      C1018   1.220       .  T
C1019      C1020   1.221       .  T
C1021      C1022   1.207       .  T
C1022      C1023   1.414       .  S
C1023      C1024   1.206       .  T
C1025      C1026   1.206       .  T
C1026      C1027   1.414       .  S
C1027      C1028   1.207       .  T
C1029      C1030   1.208       .  T
C1030      C1031   1.417       .  S
C1031      C1032   1.209       .  T
C1033      C1034   1.218       .  T
C1035      C1036   1.217       .  T
C1037      C1038   1.218       .  T
C1039      C1040   1.218       .  T
C1041      C1042   1.218       .  T
C1043      C1044   1.218       .  T
C1045      C1046   1.208       .  T
C1046      C1047   1.416       .  S
C1047      C1048   1.207       .  T
C1049      C1050   1.208       .  T
C1050      C1051   1.416       .  S
C1051      C1052   1.208       .  T
C1053      C1054   1.207       .  T
C1054      C1055   1.415       .  S
C1055      C1056   1.207       .  T
C1057      C1058   1.206       .  T
C1058      C1059   1.414       .  S
C1059      C1060   1.207       .  T
C1061      C1062   1.207       .  T
C1062      C1063   1.414       .  S
C1063      C1064   1.207       .  T
C1065      C1066   1.207       .  T
C1066      C1067   1.416       .  S
C1067      C1068   1.207       .  T
C1069      C1070   1.221       .  T
C1071      C1072   1.222       .  T
C1073      C1074   1.223       .  T
C1075      C1076   1.220       .  T
C1077      C1078   1.222       .  T
C1079      C1080   1.223       .  T
C1081      C1082   1.208       .  T
C1082      C1083   1.415       .  S
C1083      C1084   1.207       .  T
C1085      C1086   1.207       .  T
C1086      C1087   1.415       .  S
C1087      C1088   1.207       .  T
C1089      C1090   1.207       .  T
C1090      C1091   1.414       .  S
C1091      C1092   1.206       .  T
C1093      C1094   1.206       .  T
C1094      C1095   1.414       .  S
C1095      C1096   1.206       .  T
C1097      C1098   1.206       .  T
C1098      C1099   1.414       .  S
C1099      C1100   1.206       .  T
C1101      C1102   1.207       .  T
C1102      C1103   1.416       .  S
C1103      C1104   1.207       .  T
C1105      C1106   1.221       .  T
C1107      C1108   1.221       .  T
C1109      C1110   1.224       .  T
C1111      C1112   1.224       .  T
C1113      C1114   1.223       .  T
C1115      C1116   1.221       .  T
C1117      C1118   1.205       .  T
C1118      C1119   1.412       .  S
C1119      C1120   1.205       .  T
C1121      C1122   1.209       .  T
C1122      C1123   1.418       .  S
C1123      C1124   1.209       .  T
C1125      C1126   1.208       .  T
C1126      C1127   1.417       .  S
C1127      C1128   1.209       .  T
C1129      C1130   1.207       .  T
C1130      C1131   1.415       .  S
C1131      C1132   1.207       .  T
C1133      C1134   1.207       .  T
C1134      C1135   1.415       .  S
C1135      C1136   1.208       .  T
C1137      C1138   1.208       .  T
C1138      C1139   1.415       .  S
C1139      C1140   1.207       .  T
C1141      C1142   1.208       .  T
C1142      C1143   1.415       .  S
C1143      C1144   1.207       .  T
C1145      C1146   1.209       .  T
C1146      C1147   1.418       .  S
C1147      C1148   1.209       .  T
C1149      C1150   1.207       .  T
C1150      C1151   1.416       .  S
C1151      C1152   1.207       .  T
C1153      C1154   1.207       .  T
C1154      C1155   1.415       .  S
C1155      C1156   1.207       .  T
C1157      C1158   1.208       .  T
C1158      C1159   1.416       .  S
C1159      C1160   1.208       .  T
C1161      C1162   1.207       .  T
C1162      C1163   1.415       .  S
C1163      C1164   1.207       .  T
C1165      C1166   1.207       .  T
C1166      C1167   1.415       .  S
C1167      C1168   1.207       .  T
C1169      C1170   1.207       .  T
C1170      C1171   1.415       .  S
C1171      C1172   1.207       .  T
C1173      C1174   1.205       .  T
C1174      C1175   1.413       .  S
C1175      C1176   1.205       .  T
C1177      C1178   1.207       .  T
C1178      C1179   1.415       .  S
C1179      C1180   1.208       .  T
C1181      C1182   1.207       .  T
C1182      C1183   1.414       .  S
C1183      C1184   1.206       .  T
C1185      C1186   1.208       .  T
C1186      C1187   1.416       .  S
C1187      C1188   1.208       .  T
C1189      C1190   1.221       .  T
C1191      C1192   1.222       .  T
C1193      C1194   1.219       .  T
C1195      C1196   1.221       .  T
C1197      C1198   1.220       .  T
C1199      C1200   1.221       .  T
C1201      C1202   1.206       .  T
C1202      C1203   1.413       .  S
C1203      C1204   1.206       .  T
C1205      C1206   1.209       .  T
C1206      C1207   1.417       .  S
C1207      C1208   1.208       .  T
C1209      C1210   1.205       .  T
C1210      C1211   1.413       .  S
C1211      C1212   1.206       .  T
C1213      C1214   1.206       .  T
C1214      C1215   1.414       .  S
C1215      C1216   1.206       .  T
C1217      C1218   1.208       .  T
C1218      C1219   1.416       .  S
C1219      C1220   1.207       .  T
C1221      C1222   1.208       .  T
C1222      C1223   1.416       .  S
C1223      C1224   1.207       .  T
C1225      C1226   1.207       .  T
C1226      C1227   1.415       .  S
C1227      C1228   1.207       .  T
C1229      C1230   1.208       .  T
C1230      C1231   1.416       .  S
C1231      C1232   1.208       .  T
C1233      C1234   1.208       .  T
C1234      C1235   1.415       .  S
C1235      C1236   1.207       .  T
C1237      C1238   1.208       .  T
C1238      C1239   1.415       .  S
C1239      C1240   1.207       .  T
C1241      C1242   1.209       .  T
C1242      C1243   1.418       .  S
C1243      C1244   1.209       .  T
C1245      C1246   1.207       .  T
C1246      C1247   1.415       .  S
C1247      C1248   1.207       .  T
C1249      C1250   1.207       .  T
C1250      C1251   1.414       .  S
C1251      C1252   1.206       .  T
C1253      C1254   1.208       .  T
C1254      C1255   1.415       .  S
C1255      C1256   1.207       .  T
C1257      C1258   1.207       .  T
C1258      C1259   1.414       .  S
C1259      C1260   1.206       .  T
C1261      C1262   1.208       .  T
C1262      C1263   1.415       .  S
C1263      C1264   1.207       .  T
C1265      C1266   1.208       .  T
C1266      C1267   1.417       .  S
C1267      C1268   1.208       .  T
C1269      C1270   1.206       .  T
C1270      C1271   1.414       .  S
C1271      C1272   1.206       .  T
C1273      C1274   1.207       .  T
C1274      C1275   1.415       .  S
C1275      C1276   1.207       .  T
C1277      C1278   1.207       .  T
C1278      C1279   1.415       .  S
C1279      C1280   1.207       .  T
C1281      C1282   1.208       .  T
C1282      C1283   1.417       .  S
C1283      C1284   1.208       .  T
C1285      C1286   1.207       .  T
C1286      C1287   1.415       .  S
C1287      C1288   1.207       .  T
C1289      C1290   1.209       .  T
C1290      C1291   1.417       .  S
C1291      C1292   1.208       .  T
C1293      C1294   1.207       .  T
C1294      C1295   1.416       .  S
C1295      C1296   1.208       .  T
C1297      C1298   1.206       .  T
C1298      C1299   1.414       .  S
C1299      C1300   1.206       .  T
C1301      C1302   1.207       .  T
C1302      C1303   1.415       .  S
C1303      C1304   1.207       .  T
C1305      C1306   1.208       .  T
C1306      C1307   1.417       .  S
C1307      C1308   1.209       .  T
C1309      C1310   1.208       .  T
C1310      C1311   1.417       .  S
C1311      C1312   1.208       .  T
C1313      C1314   1.209       .  T
C1314      C1315   1.417       .  S
C1315      C1316   1.208       .  T
C1317      C1318   1.207       .  T
C1318      C1319   1.414       .  S
C1319      C1320   1.206       .  T
C1321      C1322   1.207       .  T
C1322      C1323   1.414       .  S
C1323      C1324   1.206       .  T
C1325      C1326   1.208       .  T
C1326      C1327   1.416       .  S
C1327      C1328   1.208       .  T
C1329      C1330   1.208       .  T
C1330      C1331   1.416       .  S
C1331      C1332   1.208       .  T
C1333      C1334   1.209       .  T
C1334      C1335   1.417       .  S
C1335      C1336   1.208       .  T
C1337      C1338   1.207       .  T
C1338      C1339   1.413       .  S
C1339      C1340   1.205       .  T
C1341      C1342   1.207       .  T
C1342      C1343   1.415       .  S
C1343      C1344   1.208       .  T
C1345      C1346   1.208       .  T
C1346      C1347   1.416       .  S
C1347      C1348   1.207       .  T
C1349      C1350   1.208       .  T
C1350      C1351   1.417       .  S
C1351      C1352   1.209       .  T
C1353      C1354   1.210       .  T
C1354      C1355   1.418       .  S
C1355      C1356   1.209       .  T
C1357      C1358   1.208       .  T
C1358      C1359   1.417       .  S
C1359      C1360   1.208       .  T
C1361      C1362   1.207       .  T
C1362      C1363   1.416       .  S
C1363      C1364   1.208       .  T
C1365      C1366   1.207       .  T
C1366      C1367   1.415       .  S
C1367      C1368   1.207       .  T
