geometry optimzed in LAMMPS
_audit_creation_date              2020-11-30 
_audit_creation_method            'lammps2cif' 
_symmetry_space_group_name_H-M    'P1' 
_symmetry_Int_Tables_number       1 
_symmetry_cell_setting            triclinic 
loop_ 
_symmetry_equiv_pos_as_xyz 
  x,y,z 
_cell_length_a                    35.1725763 
_cell_length_b                    34.464930948130245 
_cell_length_c                    33.76440269317223 
_cell_angle_alpha                 89.19758707199269 
_cell_angle_beta                  88.93032804960818 
_cell_angle_gamma                 90.03253968088195 
loop_ 
_atom_site_label 
_atom_site_type_symbol 
_atom_site_fract_x 
_atom_site_fract_y 
_atom_site_fract_z 
_atom_site_charge 
O1          O  0.46886107  0.44240925  0.04077027    -0.80100
O2          O  0.53411041  0.45127523  0.45413777    -0.80100
O3          O  0.44906264  0.47034805  0.45762102    -0.80100
O4          O  0.58999048  0.48629430  0.04170315    -0.80100
O5          O  0.48245456  0.48173263  0.40260586    -0.80200
O6          O  0.54595168  0.44098614  0.04774091    -0.80100
O7          O  0.58462730  0.48816130  0.46306347    -0.80100
O8          O  0.42667770  0.48726454  0.03217272    -0.80100
C9          C  0.43468400  0.45295941  0.04251076     1.09600
C10         C  0.56954364  0.45693502  0.45027796     1.09500
C11         C  0.45498242  0.46464419  0.42025424     1.09600
C12         C  0.58045309  0.45126959  0.04843087     1.09500
O13         O  0.54293313  0.51181069  0.09211560    -0.80100
O14         O  0.47136476  0.54815586  0.44231086    -0.80200
O15         O  0.46595366  0.55943241  0.03174584    -0.80100
O16         O  0.54742129  0.56563733  0.47056980    -0.80100
O17         O  0.54209638  0.52738816  0.42119647    -0.80100
O18         O  0.46740178  0.51766304  0.08209869    -0.80100
O19         O  0.55226548  0.56000303  0.04967365    -0.80100
O20         O  0.41641151  0.53955779  0.47375936    -0.80100
Co21       Co  0.50634541  0.47843671  0.06254059     1.51500
Co22       Co  0.50213432  0.49726248  0.45160880     1.51700
Co23       Co  0.46067449  0.51691085  0.49472583     1.51600
Co24       Co  0.56584807  0.52525125  0.00605030     1.51500
O25         O  0.51341345  0.50336727  0.00878022    -1.42000
C26         C  0.55188727  0.54693810  0.08478142     1.09500
C27         C  0.43584215  0.55643391  0.44674528     1.09600
C28         C  0.45890605  0.55107507  0.06770931     1.09600
C29         C  0.55360953  0.55915166  0.43470656     1.09500
O30         O  0.51237766  0.96587315  0.08194570    -0.80100
O31         O  0.51561183  0.04074253  0.41932842    -0.80100
O32         O  0.55132749  0.94929940  0.45582468    -0.80100
O33         O  0.52352864  0.09549288  0.03258006    -0.80100
O34         O  0.51159888  0.96264933  0.40835398    -0.80200
O35         O  0.53563295  0.03801065  0.05895202    -0.80100
O36         O  0.55015569  0.04796689  0.47283110    -0.80100
O37         O  0.55178937  0.95402045  0.03380228    -0.80100
C38         C  0.54474350  0.95430869  0.07028119     1.09600
C39         C  0.54671016  0.05033761  0.43556120     1.09500
C40         C  0.54382087  0.94994598  0.41955944     1.09600
C41         C  0.54239464  0.07482611  0.05664194     1.09500
O42         O  0.46694765  0.02862828  0.09770449    -0.80100
O43         O  0.43631641  0.96256403  0.44745012    -0.80200
O44         O  0.47292116  0.92177638  0.03831524    -0.80100
O45         O  0.47751143  0.08477255  0.46653161    -0.80100
O46         O  0.43813213  0.03853988  0.45554808    -0.80100
O47         O  0.43901808  0.97488999  0.04697306    -0.80100
O48         O  0.45442592  0.05927094  0.04183978    -0.80100
O49         O  0.47609536  0.91470872  0.45702040    -0.80100
Co50       Co  0.48545972  0.00677347  0.04948886     1.51500
Co51       Co  0.47578314  0.00109762  0.43607658     1.51700
Co52       Co  0.51257264  0.93840605  0.99643632     1.51600
Co53       Co  0.50400374  0.05037089  0.00726593     1.51500
O54         O  0.49485458  0.99431411  0.99200873    -1.42000
C55         C  0.44763720  0.05391964  0.07939955     1.09500
C56         C  0.44422038  0.92721693  0.44485685     1.09600
C57         C  0.44239539  0.93841391  0.05052731     1.09600
C58         C  0.44590323  0.07394020  0.45299208     1.09500
O59         O  0.94421247  0.55963978  0.03892392    -0.80100
O60         O  0.03262157  0.55907175  0.47116214    -0.80100
O61         O  0.02807121  0.54411345  0.06029715    -0.80100
O62         O  0.94818512  0.51665095  0.41368377    -0.80100
O63         O  0.08273961  0.53625065  0.02806764    -0.80200
O64         O  0.93545257  0.55782441  0.46117758    -0.80100
O65         O  0.02556767  0.52151599  0.41942601    -0.80100
O66         O  0.95839517  0.51953672  0.08614402    -0.80100
C67         C  0.94646252  0.55239080  0.07524872     1.09600
C68         C  0.03582188  0.55380646  0.43408917     1.09500
C69         C  0.06337003  0.55365496  0.05443775     1.09600
C70         C  0.93475800  0.54918080  0.42513543     1.09500
O71         O  0.90351598  0.48020495  0.46567416    -0.80100
O72         O  0.05088469  0.46465681  0.04390991    -0.80200
O73         O  0.96671532  0.44461613  0.05146607    -0.80100
O74         O  0.02598559  0.44323907  0.45739788    -0.80100
O75         O  0.07005588  0.48584151  0.46632914    -0.80100
O76         O  0.91410825  0.47876933  0.04595327    -0.80100
O77         O  0.95092266  0.44049982  0.45426155    -0.80100
O78         O  0.01959927  0.47569138  0.09968211    -0.80100
Co79       Co  0.92790431  0.51871952  0.00278310     1.51500
Co80       Co  0.03792351  0.51370198  0.00740319     1.51700
Co81       Co  0.99745191  0.49252787  0.05210020     1.51600
Co82       Co  0.98763055  0.48097688  0.43966649     1.51500
O83         O  0.98298400  0.50153630  0.99549501    -1.42000
C84         C  0.91590265  0.44742425  0.45419878     1.09500
C85         C  0.04575487  0.45772613  0.08164404     1.09600
C86         C  0.93120215  0.44794970  0.05751909     1.09600
C87         C  0.06029416  0.45276522  0.45423174     1.09500
C88         C  0.25649414  0.26359610  0.29189673     0.45500
H89         H  0.26054762  0.26519361  0.32438263    -0.03500
C90         C  0.24744163  0.26009604  0.21624236     0.45600
H91         H  0.24359961  0.25848828  0.18371101    -0.03500
C92         C  0.28178585  0.29214261  0.26825756    -0.17200
C93         C  0.26709004  0.22389779  0.27496603    -0.17000
C94         C  0.21597152  0.27442368  0.27948357    -0.17300
C95         C  0.27688008  0.29045673  0.22806578    -0.17300
C96         C  0.26274150  0.22185447  0.23449466    -0.16900
C97         C  0.21108207  0.27260197  0.23901189    -0.17200
C98         C  0.75048544  0.25068923  0.21423574     0.45500
H99         H  0.75599771  0.25287941  0.18175965    -0.03500
C100        C  0.73816630  0.24526759  0.28964233     0.45600
H101        H  0.73262749  0.24184964  0.32198604    -0.03500
C102        C  0.72014160  0.27909756  0.22945879    -0.17200
C103        C  0.73515702  0.21049370  0.22700185    -0.17000
C104        C  0.78561142  0.26118940  0.23859398    -0.17300
C105        C  0.71312616  0.27605671  0.26955706    -0.17300
C106        C  0.72985539  0.20756228  0.26745277    -0.16900
C107        C  0.77894736  0.25926087  0.27920264    -0.17200
C108        C  0.24792790  0.74564459  0.20926239     0.45500
H109        H  0.24672025  0.74941120  0.17657711    -0.03500
C110        C  0.25059204  0.73653217  0.28534909     0.45600
H111        H  0.25264077  0.73321219  0.31785567    -0.03500
C112        C  0.27431280  0.71264051  0.22195878    -0.17200
C113        C  0.26405417  0.78153153  0.23054287    -0.17000
C114        C  0.20923625  0.73384598  0.22858629    -0.17300
C115        C  0.27547240  0.70769708  0.26215384    -0.17300
C116        C  0.26526669  0.77663523  0.27122733    -0.16900
C117        C  0.21013786  0.73009077  0.26957382    -0.17200
C118        C  0.75200422  0.76078220  0.27924222     0.45500
H119        H  0.75642284  0.76519314  0.31136085    -0.03500
C120        C  0.74268883  0.75121306  0.20399703     0.45600
H121        H  0.73767150  0.74803486  0.17230391    -0.03500
C122        C  0.72210087  0.73047262  0.27050797    -0.17200
C123        C  0.73744633  0.79769957  0.25728323    -0.17000
C124        C  0.78762069  0.74424415  0.25766136    -0.17300
C125        C  0.71663760  0.72535470  0.23086553    -0.17300
C126        C  0.73355905  0.79264047  0.21709709    -0.16900
C127        C  0.78366792  0.74173196  0.21693496    -0.17200
C128        C  0.15756770  0.64878931  0.18261969    -0.27600
C129        C  0.13919582  0.66668372  0.15079096     0.02000
C130        C  0.14311922  0.70708751  0.14503970     0.30100
C131        C  0.16493067  0.72888834  0.17134090    -0.19400
C132        C  0.18300475  0.71090254  0.20353185    -0.28800
C133        C  0.17959824  0.67027980  0.20852877     0.44200
C134        C  0.11681541  0.64192922  0.12398819     0.05300
O135        O  0.12504042  0.72554652  0.11446811    -0.57300
H136        H  0.16799143  0.75987875  0.16645553     0.18300
O137        O  0.19974177  0.65092932  0.23702209    -0.64000
H138        H  0.15561345  0.61761214  0.18684225     0.16700
C139        C  0.12812263  0.63641067  0.08418937     0.29000
C140        C  0.11006429  0.60819945  0.06145355    -0.24900
C141        C  0.08049097  0.58521821  0.07780688    -0.24200
C142        C  0.06845841  0.59170687  0.11725977     0.40400
C143        C  0.08674361  0.61958162  0.13998438    -0.26600
O144        O  0.15778613  0.65726890  0.06772551    -0.58500
H145        H  0.11961999  0.60386221  0.03114423     0.16100
O146        O  0.04075591  0.56897953  0.13489363    -0.59900
H147        H  0.07815064  0.62297898  0.17073270     0.14500
H148        H  0.18046426  0.63847041  0.25489188     0.46400
H149        H  0.18097452  0.64245067  0.07456663     0.41800
H150        H  0.01718509  0.58465310  0.13370980     0.45200
H151        H  0.14535523  0.73194799  0.09467980     0.36700
C152        C  0.08563602  0.60521557  0.34585591    -0.27600
C153        C  0.09879179  0.63927755  0.36332701     0.02000
C154        C  0.08905755  0.64622767  0.40321871     0.30100
C155        C  0.06714183  0.61910362  0.42520634    -0.19400
C156        C  0.05505423  0.58409987  0.40838398    -0.28800
C157        C  0.06430146  0.57763890  0.36796434     0.44200
C158        C  0.12599669  0.66515335  0.34108914     0.05300
O159        O  0.10094881  0.67956519  0.42096802    -0.57300
H160        H  0.06059914  0.62512139  0.45599067     0.18300
O161        O  0.05348833  0.54412810  0.34983130    -0.64000
H162        H  0.09325861  0.59921661  0.31530588     0.16700
C163        C  0.16461631  0.66494504  0.35059049     0.29000
C164        C  0.19078017  0.68710281  0.32817993    -0.24900
C165        C  0.17971154  0.71038118  0.29558187    -0.24200
C166        C  0.14026281  0.71254449  0.28783265     0.40400
C167        C  0.11396371  0.68952963  0.31007338    -0.26600
O168        O  0.17745751  0.64146209  0.38065966    -0.58500
H169        H  0.22011150  0.68446313  0.33626608     0.16100
O170        O  0.12699043  0.73823346  0.25990342    -0.59900
H171        H  0.08403203  0.69088835  0.30319118     0.14500
H172        H  0.07559259  0.52641872  0.35206947     0.46400
H173        H  0.18343811  0.65921833  0.40256591     0.41800
H174        H  0.11193497  0.72263454  0.24131133     0.45200
H175        H  0.12118304  0.67132134  0.43933388     0.36700
C176        C  0.10490744  0.36138791  0.41312610    -0.27600
C177        C  0.12751800  0.37644735  0.38188753     0.02000
C178        C  0.12990301  0.41705507  0.37641899     0.30100
C179        C  0.10980028  0.44186594  0.40194747    -0.19400
C180        C  0.08667679  0.42675432  0.43273616    -0.28800
C181        C  0.08434910  0.38615874  0.43821719     0.44200
C182        C  0.14957713  0.34964531  0.35606740     0.05300
O183        O  0.14993774  0.43255316  0.34470394    -0.57300
H184        H  0.11079095  0.47290187  0.39641518     0.18300
O185        O  0.06233472  0.37047601  0.46837178    -0.64000
H186        H  0.10314375  0.33029542  0.41802903     0.16700
C187        C  0.18939648  0.35218370  0.35388061     0.29000
C188        C  0.21011156  0.32729081  0.32944943    -0.24900
C189        C  0.19208220  0.29898881  0.30666352    -0.24200
C190        C  0.15214369  0.29575733  0.30951163     0.40400
C191        C  0.13118640  0.32094145  0.33412876    -0.26600
O192        O  0.20849294  0.37894331  0.37571379    -0.58500
H193        H  0.24057989  0.33086899  0.32813439     0.16100
O194        O  0.13335082  0.26832331  0.28831194    -0.59900
H195        H  0.10050235  0.31833331  0.33581579     0.14500
H196        H  0.03846558  0.36220470  0.45575984     0.46400
H197        H  0.21436529  0.36540712  0.40096924     0.41800
H198        H  0.13276167  0.24482262  0.30558363     0.45200
H199        H  0.17189696  0.44617562  0.35617154     0.36700
C200        C  0.08580431  0.39610639  0.16599331    -0.27600
C201        C  0.11304606  0.37341243  0.14638563     0.02000
C202        C  0.11748828  0.37757639  0.10493389     0.30100
C203        C  0.09538475  0.40475414  0.08395615    -0.19400
C204        C  0.06853597  0.42817242  0.10377104    -0.28800
C205        C  0.06382544  0.42318369  0.14534658     0.44200
C206        C  0.13775078  0.34719064  0.17017049     0.05300
O207        O  0.14385975  0.35578757  0.08475567    -0.57300
H208        H  0.09953882  0.40770772  0.05218373     0.18300
O209        O  0.03781721  0.44462422  0.16645642    -0.64000
H210        H  0.08180039  0.39309566  0.19779738     0.16700
C211        C  0.16031330  0.36235262  0.20033597     0.29000
C212        C  0.18288220  0.33769565  0.22328156    -0.24900
C213        C  0.18327512  0.29742465  0.21724480    -0.24200
C214        C  0.16112272  0.28222326  0.18677464     0.40400
C215        C  0.13838987  0.30699061  0.16363779    -0.26600
O216        O  0.16106850  0.40149520  0.20710836    -0.58500
H217        H  0.20115615  0.35039121  0.24504380     0.16100
O218        O  0.16116839  0.24312815  0.17976582    -0.59900
H219        H  0.12109729  0.29478087  0.14069666     0.14500
H220        H  0.05213429  0.46744918  0.17576325     0.46400
H221        H  0.18327333  0.41144190  0.19152894     0.41800
H222        H  0.17886339  0.23964854  0.15688620     0.45200
H223        H  0.16773732  0.37106318  0.08527592     0.36700
C224        C  0.85450854  0.39514725  0.11980783    -0.27600
C225        C  0.87496041  0.36391684  0.13607731     0.02000
C226        C  0.91319717  0.35891134  0.12392843     0.30100
C227        C  0.93057685  0.38547269  0.09723992    -0.19400
C228        C  0.91054474  0.41764798  0.08198146    -0.28800
C229        C  0.87177593  0.42168760  0.09308627     0.44200
C230        C  0.85602664  0.33704842  0.16566117     0.05300
O231        O  0.93420997  0.32869867  0.13876042    -0.57300
H232        H  0.96028182  0.38132716  0.08936579     0.18300
O233        O  0.85058853  0.45212480  0.07907477    -0.64000
H234        H  0.82484473  0.39911769  0.12799534     0.16700
C235        C  0.83631697  0.35151713  0.19916719     0.29000
C236        C  0.81580283  0.32629068  0.22465210    -0.24900
C237        C  0.81474685  0.28616521  0.21775513    -0.24200
C238        C  0.83561374  0.27152660  0.18520444     0.40400
C239        C  0.85604358  0.29675778  0.15960419    -0.26600
O240        O  0.83580359  0.39053395  0.20655485    -0.58500
H241        H  0.79882402  0.33848555  0.24849233     0.16100
O242        O  0.83436963  0.23273597  0.17679455    -0.59900
H243        H  0.87062228  0.28492937  0.13394507     0.14500
H244        H  0.83842358  0.44230209  0.05491852     0.46400
H245        H  0.85882260  0.39535817  0.22225474     0.41800
H246        H  0.85289155  0.22036909  0.19478597     0.45200
H247        H  0.94810978  0.33962022  0.16132997     0.36700
C248        C  0.84053252  0.40034285  0.39156561    -0.27600
C249        C  0.85415393  0.36196682  0.38963294     0.02000
C250        C  0.88514062  0.35119882  0.41308864     0.30100
C251        C  0.90326136  0.37889861  0.43609131    -0.19400
C252        C  0.89093290  0.41777428  0.43654832    -0.28800
C253        C  0.85860385  0.42812686  0.41476736     0.44200
C254        C  0.83586666  0.33357298  0.36304317     0.05300
O255        O  0.89838334  0.31377945  0.41324732    -0.57300
H256        H  0.92791725  0.37012714  0.45277589     0.18300
O257        O  0.84560002  0.46564148  0.41422364    -0.64000
H258        H  0.81658302  0.40918902  0.37386229     0.16700
C259        C  0.79645654  0.32761748  0.36512311     0.29000
C260        C  0.77905577  0.30307007  0.33842119    -0.24900
C261        C  0.80006972  0.28288446  0.30918309    -0.24200
C262        C  0.84008175  0.28694124  0.30886367     0.40400
C263        C  0.85752984  0.31259556  0.33510417    -0.26600
O264        O  0.77444836  0.34587421  0.39319292    -0.58500
H265        H  0.74859002  0.30080733  0.34084879     0.16100
O266        O  0.86249704  0.26638679  0.28298484    -0.59900
H267        H  0.88808350  0.31643830  0.33331928     0.14500
H268        H  0.85982850  0.47868990  0.39215992     0.46400
H269        H  0.77295463  0.32742618  0.41599818     0.41800
H270        H  0.86328865  0.23965096  0.29413900     0.45200
H271        H  0.88352541  0.30023429  0.43452219     0.36700
C272        C  0.90699441  0.61067104  0.33432750    -0.27600
C273        C  0.87769662  0.63385236  0.35051446     0.02000
C274        C  0.86662463  0.62757816  0.39031253     0.30100
C275        C  0.88521248  0.59960284  0.41347524    -0.19400
C276        C  0.91512813  0.57694260  0.39787647    -0.28800
C277        C  0.92576510  0.58253448  0.35772013     0.44200
C278        C  0.85699863  0.66284531  0.32547951     0.05300
O279        O  0.83624155  0.64732223  0.40624796    -0.57300
H280        H  0.87577521  0.59538764  0.44396982     0.18300
O281        O  0.95477913  0.56128355  0.34122911    -0.64000
H282        H  0.91554235  0.61466735  0.30354902     0.16700
C283        C  0.85645983  0.70279151  0.33432898     0.29000
C284        C  0.83435786  0.72890677  0.31184247    -0.24900
C285        C  0.81227822  0.71593887  0.28039642    -0.24200
C286        C  0.81256912  0.67564810  0.27205631     0.40400
C287        C  0.83503888  0.64984818  0.29417100    -0.26600
O288        O  0.87813024  0.71663722  0.36440983    -0.58500
H289        H  0.83441463  0.75943077  0.31906580     0.16100
O290        O  0.78953432  0.66087273  0.24355468    -0.59900
H291        H  0.83432091  0.61917527  0.28757622     0.14500
H292        H  0.97827882  0.57584184  0.34714983     0.46400
H293        H  0.85974039  0.72471590  0.38533688     0.41800
H294        H  0.80657370  0.64716357  0.22465075     0.45200
H295        H  0.84707832  0.66460407  0.42638511     0.36700
C296        C  0.83232296  0.67595374  0.14026438    -0.27600
C297        C  0.86812857  0.67217568  0.15695853     0.02000
C298        C  0.87869159  0.69757633  0.18682699     0.30100
C299        C  0.85204359  0.72388111  0.20214008    -0.19400
C300        C  0.81370629  0.72340225  0.19018809    -0.28800
C301        C  0.80501459  0.70126714  0.15619835     0.44200
C302        C  0.89347522  0.64099806  0.14281924     0.05300
O303        O  0.91433044  0.69568584  0.20251378    -0.57300
H304        H  0.86078998  0.74266978  0.22573029     0.18300
O305        O  0.77077471  0.70454657  0.13756827    -0.64000
H306        H  0.82507364  0.65812381  0.11529428     0.16700
C307        C  0.88370014  0.60180146  0.14982342     0.29000
C308        C  0.90400340  0.57236708  0.13062360    -0.24900
C309        C  0.93319890  0.58177654  0.10339303    -0.24200
C310        C  0.94428816  0.62083860  0.09806528     0.40400
C311        C  0.92473352  0.65017492  0.11818211    -0.26600
O312        O  0.85342231  0.59219156  0.17424362    -0.58500
H313        H  0.89495774  0.54247600  0.13461072     0.16100
O314        O  0.97356049  0.63058124  0.07237331    -0.59900
H315        H  0.93245581  0.68022958  0.11264001     0.14500
H316        H  0.76282206  0.67815263  0.12974948     0.46400
H317        H  0.83164749  0.58866223  0.15637119     0.41800
H318        H  0.96119824  0.63893835  0.04750871     0.45200
H319        H  0.91225709  0.67626541  0.22442636     0.36700
C320        C  0.60897991  0.07943896  0.34673112    -0.27600
C321        C  0.63379302  0.10623498  0.36348713     0.02000
C322        C  0.63124836  0.11293543  0.40451953     0.30100
C323        C  0.60366372  0.09348063  0.42789870    -0.19400
C324        C  0.57801305  0.06748194  0.41090874    -0.28800
C325        C  0.58136900  0.06012452  0.37000189     0.44200
C326        C  0.65952573  0.12951422  0.33712074     0.05300
O327        O  0.65353372  0.14064599  0.42141707    -0.57300
H328        H  0.60134468  0.10005946  0.45914114     0.18300
O329        O  0.55747304  0.03450408  0.35226798    -0.64000
H330        H  0.61059390  0.07397530  0.31521181     0.16700
C331        C  0.69908193  0.13108534  0.34285473     0.29000
C332        C  0.72191754  0.15540864  0.31873247    -0.24900
C333        C  0.70598420  0.17775705  0.28821715    -0.24200
C334        C  0.66654605  0.17548632  0.28189942     0.40400
C335        C  0.64376106  0.15140936  0.30619654    -0.26600
O336        O  0.71560219  0.10946766  0.37226340    -0.58500
H337        H  0.75208675  0.15744353  0.32431747     0.16100
O338        O  0.64958464  0.19941108  0.25460125    -0.59900
H339        H  0.61332029  0.15098868  0.30180941     0.14500
H340        H  0.57244203  0.01029486  0.34982960     0.46400
H341        H  0.71996468  0.08354494  0.36064865     0.41800
H342        H  0.63690583  0.18199151  0.23578661     0.45200
H343        H  0.67157604  0.12611710  0.43827796     0.36700
C344        C  0.59215831  0.13993899  0.12923327    -0.27600
C345        C  0.62967009  0.12563448  0.12830084     0.02000
C346        C  0.63791232  0.09329873  0.10437001     0.30100
C347        C  0.60924590  0.07652869  0.08154046    -0.19400
C348        C  0.57235289  0.09222351  0.08121272    -0.28800
C349        C  0.56386772  0.12380424  0.10577679     0.44200
C350        C  0.65986142  0.14609723  0.15090575     0.05300
O351        O  0.67404283  0.07845405  0.10225570    -0.57300
H352        H  0.61611152  0.05184600  0.06321145     0.18300
O353        O  0.52778259  0.13885865  0.10747774    -0.64000
H354        H  0.58474092  0.16399288  0.14817174     0.16700
C355        C  0.66414249  0.18660350  0.14709807     0.29000
C356        C  0.69053610  0.20623076  0.16998217    -0.24900
C357        C  0.71292309  0.18671020  0.19808660    -0.24200
C358        C  0.71051395  0.14579303  0.20011384     0.40400
C359        C  0.68397856  0.12587067  0.17693981    -0.26600
O360        O  0.64286121  0.20738729  0.12053302    -0.58500
H361        H  0.69191677  0.23734496  0.16656952     0.16100
O362        O  0.73329749  0.12506595  0.22519462    -0.59900
H363        H  0.68158174  0.09465047  0.18012457     0.14500
H364        H  0.51345171  0.12173219  0.12632082     0.46400
H365        H  0.62492121  0.22297817  0.13682515     0.41800
H366        H  0.75595341  0.11800700  0.20892612     0.45200
H367        H  0.68743892  0.09429194  0.08158566     0.36700
C368        C  0.36339589  0.12095825  0.10141855    -0.27600
C369        C  0.36063057  0.11862875  0.14297548     0.02000
C370        C  0.38574310  0.09389498  0.16327889     0.30100
C371        C  0.41329146  0.07259885  0.14220810    -0.19400
C372        C  0.41684336  0.07567297  0.10062597    -0.28800
C373        C  0.39119259  0.10004319  0.08030645     0.44200
C374        C  0.33350746  0.14428754  0.16488144     0.05300
O375        O  0.38437550  0.09116730  0.20385118    -0.57300
H376        H  0.43252641  0.05423588  0.15870878     0.18300
O377        O  0.39260242  0.10341600  0.03977980    -0.64000
H378        H  0.34413383  0.13955442  0.08521141     0.16700
C379        C  0.33507127  0.18474665  0.15906845     0.29000
C380        C  0.31072487  0.20898019  0.18062821    -0.24900
C381        C  0.28466028  0.19400858  0.20900348    -0.24200
C382        C  0.28239483  0.15342393  0.21435211     0.40400
C383        C  0.30663593  0.12887102  0.19229581    -0.26600
O384        O  0.36208751  0.20110399  0.13416708    -0.58500
H385        H  0.31350866  0.23985679  0.17594581     0.16100
O386        O  0.25610395  0.13758204  0.24039125    -0.59900
H387        H  0.30460630  0.09775192  0.19677690     0.14500
H388        H  0.40868489  0.12652905  0.03398597     0.46400
H389        H  0.34807434  0.21024047  0.11060150     0.41800
H390        H  0.27097820  0.12697387  0.26271788     0.45200
H391        H  0.40061685  0.11264881  0.21307073     0.36700
C392        C  0.35848483  0.10796625  0.39801960    -0.27600
C393        C  0.37074152  0.14283983  0.38015060     0.02000
C394        C  0.40700589  0.15737505  0.38983248     0.30100
C395        C  0.43084608  0.13594027  0.41531593    -0.19400
C396        C  0.41899309  0.10006356  0.43163928    -0.28800
C397        C  0.38173800  0.08704112  0.42368927     0.44200
C398        C  0.34465265  0.16325459  0.35212892     0.05300
O399        O  0.41879277  0.19300212  0.37565724    -0.57300
H400        H  0.45898397  0.14690921  0.42136353     0.18300
O401        O  0.36781697  0.05311642  0.44003346    -0.64000
H402        H  0.33070671  0.09632152  0.39149201     0.16700
C403        C  0.35677471  0.17563799  0.31388603     0.29000
C404        C  0.33116209  0.19397850  0.28826811    -0.24900
C405        C  0.29266668  0.19881087  0.29924965    -0.24200
C406        C  0.28036003  0.18557146  0.33695074     0.40400
C407        C  0.30610462  0.16804056  0.36290805    -0.26600
O408        O  0.39346727  0.16971305  0.30097674    -0.58500
H409        H  0.34182267  0.20539256  0.26018271     0.16100
O410        O  0.24299905  0.18961852  0.34862355    -0.59900
H411        H  0.29587176  0.15845180  0.39188491     0.14500
H412        H  0.35771204  0.06025348  0.46656374     0.46400
H413        H  0.39383554  0.14292058  0.29064721     0.41800
H414        H  0.24278466  0.21049660  0.36854805     0.45200
H415        H  0.44137081  0.18787983  0.35847586     0.36700
C416        C  0.65688763  0.83424397  0.14953453    -0.27600
C417        C  0.66095100  0.87402810  0.15552563     0.02000
C418        C  0.69161805  0.88739200  0.17767961     0.30100
C419        C  0.71654520  0.86066544  0.19528718    -0.19400
C420        C  0.71114225  0.82033233  0.19156369    -0.28800
C421        C  0.68125307  0.80740290  0.16738258     0.44200
C422        C  0.63230533  0.90059891  0.13847075     0.05300
O423        O  0.69609458  0.92629372  0.18419007    -0.57300
H424        H  0.73923982  0.87144346  0.21340216     0.18300
O425        O  0.67449265  0.76869210  0.16188048    -0.64000
H426        H  0.63380893  0.82374943  0.13171929     0.16700
C427        C  0.64162235  0.92469110  0.10583148     0.29000
C428        C  0.61283071  0.94429019  0.08568301    -0.24900
C429        C  0.57439205  0.94006443  0.09740166    -0.24200
C430        C  0.56529082  0.91757474  0.13137468     0.40400
C431        C  0.59419016  0.89794431  0.15158054    -0.26600
O432        O  0.67846162  0.92748695  0.09201027    -0.58500
H433        H  0.62043802  0.96147869  0.05959285     0.16100
O434        O  0.52817458  0.91251764  0.14354055    -0.59900
H435        H  0.58667322  0.87917283  0.17653093     0.14500
H436        H  0.64833682  0.76377396  0.17217267     0.46400
H437        H  0.68137468  0.90641557  0.07247169     0.41800
H438        H  0.51889848  0.88999432  0.12849173     0.45200
H439        H  0.71666671  0.93477943  0.16555351     0.36700
C440        C  0.59424196  0.90829863  0.32748677    -0.27600
C441        C  0.62864914  0.89477395  0.34365077     0.02000
C442        C  0.63495599  0.90132923  0.38411584     0.30100
C443        C  0.60787793  0.92083811  0.40719166    -0.19400
C444        C  0.57289428  0.93317247  0.39165236    -0.28800
C445        C  0.56628775  0.92669316  0.35118024     0.44200
C446        C  0.65674995  0.87188131  0.31929039     0.05300
O447        O  0.66688398  0.88737246  0.40216311    -0.57300
H448        H  0.61404173  0.92500022  0.43815771     0.18300
O449        O  0.53208022  0.93646796  0.33491416    -0.64000
H450        H  0.58861497  0.90411576  0.29642060     0.16700
C451        C  0.64453265  0.84203229  0.29433286     0.29000
C452        C  0.67114259  0.81940341  0.27383039    -0.24900
C453        C  0.71047096  0.82431389  0.27860894    -0.24200
C454        C  0.72298170  0.85393366  0.30332332     0.40400
C455        C  0.69633442  0.87799612  0.32265371    -0.26600
O456        O  0.60665539  0.83356197  0.29079352    -0.58500
H457        H  0.66094117  0.79691764  0.25480939     0.16100
O458        O  0.76110001  0.86022249  0.30804284    -0.59900
H459        H  0.70675437  0.90127218  0.34072341     0.14500
H460        H  0.53754722  0.95879372  0.31687192     0.46400
H461        H  0.60132883  0.81295303  0.31093665     0.41800
H462        H  0.76844733  0.84265481  0.33011319     0.45200
H463        H  0.66072455  0.86015404  0.40975057     0.36700
C464        C  0.35459401  0.89108457  0.39623416    -0.27600
C465        C  0.36891512  0.86201051  0.37146007     0.02000
C466        C  0.40810199  0.85298467  0.37270142     0.30100
C467        C  0.43195985  0.87276925  0.39863125    -0.19400
C468        C  0.41761499  0.90220740  0.42301662    -0.28800
C469        C  0.37849939  0.91134050  0.42144354     0.44200
C470        C  0.34223526  0.84071460  0.34560492     0.05300
O471        O  0.42372696  0.82681916  0.34677433    -0.57300
H472        H  0.46212587  0.86636723  0.39816937     0.18300
O473        O  0.36321023  0.93991982  0.44471616    -0.64000
H474        H  0.32459470  0.89820596  0.39605529     0.16700
C475        C  0.34031197  0.80002667  0.34716832     0.29000
C476        C  0.31416361  0.78039612  0.32424513    -0.24900
C477        C  0.28957607  0.80010424  0.29834586    -0.24200
C478        C  0.29034709  0.84101015  0.29780126     0.40400
C479        C  0.31642938  0.86097544  0.32142294    -0.26600
O480        O  0.36341994  0.77892200  0.37165284    -0.58500
H481        H  0.31375389  0.74928237  0.32688324     0.16100
O482        O  0.26466058  0.86157944  0.27576799    -0.59900
H483        H  0.31658200  0.89240653  0.32072340     0.14500
H484        H  0.36032983  0.96276399  0.42680346     0.46400
H485        H  0.34930112  0.77684755  0.39725157     0.41800
H486        H  0.27998822  0.87663764  0.25597657     0.45200
H487        H  0.43461182  0.80580633  0.36345244     0.36700
C488        C  0.34963710  0.83589433  0.18463331    -0.27600
C489        C  0.33317229  0.85538572  0.15254759     0.02000
C490        C  0.29343275  0.85303360  0.14820125     0.30100
C491        C  0.27118470  0.83047649  0.17501182    -0.19400
C492        C  0.28775249  0.81023580  0.20677402    -0.28800
C493        C  0.32764906  0.81310961  0.21115004     0.44200
C494        C  0.35846477  0.87622885  0.12314461     0.05300
O495        O  0.27645821  0.87048363  0.11634956    -0.57300
H496        H  0.24092690  0.82779262  0.17023632     0.18300
O497        O  0.34600848  0.79139653  0.23921323    -0.64000
H498        H  0.38015639  0.83709611  0.18832690     0.16700
C499        C  0.35491537  0.91635820  0.11569454     0.29000
C500        C  0.38132911  0.93574281  0.09067668    -0.24900
C501        C  0.41212297  0.91592009  0.07277966    -0.24200
C502        C  0.41480141  0.87539762  0.07929692     0.40400
C503        C  0.38837730  0.85611105  0.10437147    -0.26600
O504        O  0.32667423  0.93730624  0.13400372    -0.58500
H505        H  0.37835249  0.96680586  0.08648779     0.16100
O506        O  0.44384193  0.85438230  0.06250765    -0.59900
H507        H  0.39160118  0.82521426  0.10968107     0.14500
H508        H  0.36121760  0.77206050  0.22431140     0.46400
H509        H  0.33678831  0.94387353  0.16030519     0.41800
H510        H  0.43385473  0.84531364  0.03696492     0.45200
H511        H  0.26183894  0.89255032  0.12742116     0.36700
C512        C  0.31611299  0.62804581  0.32585652    -0.27600
C513        C  0.35260057  0.64295978  0.33206922     0.02000
C514        C  0.36549406  0.67519902  0.30965150     0.30100
C515        C  0.34070675  0.69393872  0.28403382    -0.19400
C516        C  0.30272008  0.68209778  0.28210417    -0.28800
C517        C  0.29076806  0.64783408  0.30144755     0.44200
C518        C  0.37603058  0.62536943  0.36311538     0.05300
O519        O  0.40141332  0.68982884  0.31411696    -0.57300
H520        H  0.35030564  0.71958400  0.26804431     0.18300
O521        O  0.25513133  0.63300354  0.29516858    -0.64000
H522        H  0.30687026  0.60168791  0.34103820     0.16700
C523        C  0.36085112  0.61936665  0.40160023     0.29000
C524        C  0.38176377  0.59890770  0.42961256    -0.24900
C525        C  0.41788529  0.58440841  0.41980097    -0.24200
C526        C  0.43429368  0.59323771  0.38224598     0.40400
C527        C  0.41309209  0.61316834  0.35405468    -0.26600
O528        O  0.32563152  0.63353448  0.41200925    -0.58500
H529        H  0.36910650  0.59328551  0.45864036     0.16100
O530        O  0.46982189  0.58012840  0.37166311    -0.59900
H531        H  0.42509371  0.61771181  0.32456422     0.14500
H532        H  0.24512834  0.62331218  0.32113834     0.46400
H533        H  0.30879499  0.61048183  0.41452262     0.41800
H534        H  0.48732529  0.60177446  0.37760940     0.45200
H535        H  0.39895766  0.70908016  0.33556605     0.36700
C536        C  0.40629891  0.59954406  0.15228991    -0.27600
C537        C  0.38027423  0.62225163  0.13113385     0.02000
C538        C  0.38230569  0.62364324  0.08959584     0.30100
C539        C  0.40966705  0.60193486  0.06961597    -0.19400
C540        C  0.43489105  0.57791913  0.09049951    -0.28800
C541        C  0.43345059  0.57718525  0.13217835     0.44200
C542        C  0.35115266  0.64478824  0.15237473     0.05300
O543        O  0.35695735  0.64532348  0.06822410    -0.57300
H544        H  0.40987295  0.60258417  0.03750968     0.18300
O545        O  0.45873295  0.55530667  0.15338717    -0.64000
H546        H  0.40537625  0.59901873  0.18438881     0.16700
C547        C  0.32413850  0.62645116  0.17743708     0.29000
C548        C  0.29737664  0.64878639  0.19791231    -0.24900
C549        C  0.29760446  0.68940126  0.19412962    -0.24200
C550        C  0.32287515  0.70728206  0.16674132     0.40400
C551        C  0.34986187  0.68504848  0.14663113    -0.26600
O552        O  0.32331027  0.58679087  0.18145322    -0.58500
H553        H  0.27704136  0.63443343  0.21760348     0.16100
O554        O  0.32283939  0.74657094  0.16071930    -0.59900
H555        H  0.37024068  0.69935802  0.12686697     0.14500
H556        H  0.44466018  0.53139785  0.16125908     0.46400
H557        H  0.33536890  0.58106249  0.20719563     0.41800
H558        H  0.30858386  0.75090519  0.13600627     0.45200
H559        H  0.33399446  0.62878006  0.06629463     0.36700
C560        C  0.60883245  0.60752859  0.35072061    -0.27600
C561        C  0.63201938  0.63276530  0.37192505     0.02000
C562        C  0.62800435  0.63483636  0.41323262     0.30100
C563        C  0.60106041  0.61178644  0.43284723    -0.19400
C564        C  0.57851489  0.58561787  0.41190317    -0.28800
C565        C  0.58260350  0.58348343  0.37051508     0.44200
C566        C  0.65960670  0.65743340  0.35039178     0.05300
O567        O  0.65071078  0.65877717  0.43473437    -0.57300
H568        H  0.59884426  0.61353130  0.46482877     0.18300
O569        O  0.56083996  0.55856890  0.34914977    -0.64000
H570        H  0.61112088  0.60643559  0.31871009     0.16700
C571        C  0.68535028  0.64124176  0.32298931     0.29000
C572        C  0.70749053  0.66556767  0.29883018    -0.24900
C573        C  0.70423129  0.70594277  0.30161229    -0.24200
C574        C  0.68134600  0.72202314  0.33168597     0.40400
C575        C  0.65859228  0.69774192  0.35544044    -0.26600
O576        O  0.68877848  0.60174437  0.31955680    -0.58500
H577        H  0.72580640  0.65278603  0.27654971     0.16100
O578        O  0.67865196  0.76134064  0.33610209    -0.59900
H579        H  0.63894688  0.71051759  0.37663450     0.14500
H580        H  0.57695083  0.53527656  0.34515688     0.46400
H581        H  0.67768129  0.59543400  0.29361765     0.41800
H582        H  0.69696666  0.76774711  0.35699203     0.45200
H583        H  0.67292973  0.64267464  0.44207269     0.36700
C584        C  0.62389839  0.67338640  0.21038943    -0.27600
C585        C  0.63680485  0.64351863  0.18591354     0.02000
C586        C  0.67596158  0.63989689  0.17742291     0.30100
C587        C  0.70150564  0.66671957  0.19251576    -0.19400
C588        C  0.68858654  0.69754998  0.21552053    -0.28800
C589        C  0.64952666  0.70026555  0.22543862     0.44200
C590        C  0.60915744  0.61856243  0.16615647     0.05300
O591        O  0.68919128  0.61149980  0.15264501    -0.57300
H592        H  0.73158093  0.66290928  0.18704438     0.18300
O593        O  0.63631380  0.72879729  0.25004888    -0.64000
H594        H  0.59382375  0.67619627  0.21731152     0.16700
C595        C  0.60974205  0.57800928  0.17123854     0.29000
C596        C  0.58810488  0.55471362  0.14655060    -0.24900
C597        C  0.56640674  0.57157418  0.11637099    -0.24200
C598        C  0.56315917  0.61227014  0.11389641     0.40400
C599        C  0.58451518  0.63547721  0.13872657    -0.26600
O600        O  0.63182006  0.56111957  0.19981457    -0.58500
H601        H  0.59038911  0.52344041  0.14929585     0.16100
O602        O  0.54065532  0.62964270  0.08604567    -0.59900
H603        H  0.58346908  0.66674769  0.13504122     0.14500
H604        H  0.61852340  0.74464076  0.23412521     0.46400
H605        H  0.65159484  0.54617201  0.18530852     0.41800
H606        H  0.51485220  0.63039069  0.09838674     0.45200
H607        H  0.70398702  0.59356626  0.16964337     0.36700
C608        C  0.64587913  0.31421301  0.34868864    -0.27600
C609        C  0.65208047  0.35429541  0.34558399     0.02000
C610        C  0.67709724  0.36889521  0.31591866     0.30100
C611        C  0.69568743  0.34332848  0.29010282    -0.19400
C612        C  0.68947871  0.30310749  0.29335790    -0.28800
C613        C  0.66418566  0.28874064  0.32283954     0.44200
C614        C  0.63144101  0.38031860  0.37304108     0.05300
O615        O  0.68376226  0.40798964  0.31214438    -0.57300
H616        H  0.71589064  0.35482884  0.26834887     0.18300
O617        O  0.65758886  0.24972603  0.32709044    -0.64000
H618        H  0.62693734  0.30252240  0.37155665     0.16700
C619        C  0.59152814  0.37932104  0.37551568     0.29000
C620        C  0.57214209  0.40359501  0.40168295    -0.24900
C621        C  0.59186746  0.42926115  0.42602872    -0.24200
C622        C  0.63197465  0.42966654  0.42417252     0.40400
C623        C  0.65145233  0.40540395  0.39764285    -0.26600
O624        O  0.57114457  0.35604957  0.35096579    -0.58500
H625        H  0.54133473  0.40294686  0.40195990     0.16100
O626        O  0.65241740  0.45375170  0.44777707    -0.59900
H627        H  0.68225441  0.40594036  0.39645079     0.14500
H628        H  0.63163820  0.24563442  0.31691246     0.46400
H629        H  0.56140440  0.33447886  0.36808305     0.41800
H630        H  0.65482033  0.43944367  0.47330928     0.45200
H631        H  0.66384023  0.41778970  0.29417752     0.36700
C632        C  0.66457025  0.41123920  0.10177216    -0.27600
C633        C  0.65274676  0.37278929  0.10805407     0.02000
C634        C  0.62154266  0.35844449  0.08723410     0.30100
C635        C  0.59954753  0.38388137  0.06491500    -0.19400
C636        C  0.60900994  0.42340432  0.06223958    -0.28800
C637        C  0.64346690  0.43635576  0.07826557     0.44200
C638        C  0.67028476  0.34952808  0.13965638     0.05300
O639        O  0.61092338  0.32021297  0.09057992    -0.57300
H640        H  0.57393467  0.37307077  0.05152293     0.18300
O641        O  0.65492872  0.47430139  0.07457001    -0.57500
H642        H  0.68873184  0.42268611  0.11726439     0.16700
C643        C  0.70997985  0.34692444  0.14258802     0.29000
C644        C  0.72561216  0.32590566  0.17368509    -0.24900
C645        C  0.70228486  0.30670024  0.20184916    -0.24200
C646        C  0.66257534  0.30959949  0.19929632     0.40400
C647        C  0.64685105  0.33128354  0.16849161    -0.26600
O648        O  0.73373925  0.36399743  0.11474645    -0.58500
H649        H  0.75617664  0.32346834  0.17478644     0.16100
O650        O  0.63906294  0.28887083  0.22464546    -0.59900
H651        H  0.61619179  0.33356579  0.16696433     0.14500
H652        H  0.66998888  0.47557826  0.04943828     0.46400
H653        H  0.73679845  0.34454240  0.09357595     0.41800
H654        H  0.62583942  0.30849807  0.24110677     0.45200
H655        H  0.62807995  0.30621969  0.07202298     0.36700
C656        C  0.37852691  0.39135267  0.39630083    -0.27600
C657        C  0.38167567  0.39059677  0.35490232     0.02000
C658        C  0.40939649  0.41342606  0.33519923     0.30100
C659        C  0.43339354  0.43695964  0.35690960    -0.19400
C660        C  0.43024655  0.43808956  0.39843886    -0.28800
C661        C  0.40246547  0.41488275  0.41814443     0.44200
C662        C  0.35621958  0.36551124  0.33248167     0.05300
O663        O  0.41331471  0.41280449  0.29471569    -0.57300
H664        H  0.45432511  0.45459665  0.34105884     0.18300
O665        O  0.39881252  0.41432840  0.45867339    -0.64000
H666        H  0.35718488  0.37385579  0.41172466     0.16700
C667        C  0.35553880  0.32524777  0.33954705     0.29000
C668        C  0.33177748  0.30182789  0.31754416    -0.24900
C669        C  0.30810620  0.31806671  0.28878630    -0.24200
C670        C  0.30798159  0.35852066  0.28243509     0.40400
C671        C  0.33238969  0.38193103  0.30390943    -0.26600
O672        O  0.37892635  0.30847224  0.36698189    -0.58500
H673        H  0.33187865  0.27080521  0.32302363     0.16100
O674        O  0.28344360  0.37550883  0.25630911    -0.59900
H675        H  0.33221086  0.41304857  0.29885994     0.14500
H676        H  0.37810566  0.43293672  0.46483673     0.46400
H677        H  0.36220050  0.30215892  0.39017779     0.41800
H678        H  0.26053805  0.38215800  0.27237925     0.45200
H679        H  0.43114635  0.39118372  0.28916904     0.36700
C680        C  0.35629576  0.33676809  0.16691454    -0.27600
C681        C  0.33567875  0.35742172  0.13833268     0.02000
C682        C  0.29572465  0.35541364  0.13903065     0.30100
C683        C  0.27702328  0.33359235  0.16868542    -0.19400
C684        C  0.29766474  0.31398137  0.19792411    -0.28800
C685        C  0.33761180  0.31499650  0.19651040     0.44200
C686        C  0.35677200  0.38099097  0.10841973     0.05300
O687        O  0.27500962  0.37301987  0.10977068    -0.57300
H688        H  0.24628663  0.33198606  0.16876220     0.18300
O689        O  0.35847144  0.29270292  0.22217952    -0.64000
H690        H  0.38710311  0.33755601  0.16632135     0.16700
C691        C  0.34975333  0.42102214  0.10384035     0.29000
C692        C  0.37373598  0.44367293  0.07952396    -0.24900
C693        C  0.40572056  0.42721824  0.06078766    -0.24200
C694        C  0.41192654  0.38693279  0.06428108     0.40400
C695        C  0.38719897  0.36410728  0.08750717    -0.26600
O696        O  0.32116661  0.43878956  0.12498215    -0.58500
H697        H  0.36878553  0.47467206  0.07764389     0.16100
O698        O  0.44246456  0.36969355  0.04577507    -0.59900
H699        H  0.39279490  0.33330340  0.09062180     0.14500
H700        H  0.37346957  0.31125398  0.23777209     0.46400
H701        H  0.33206609  0.44420249  0.15122029     0.41800
H702        H  0.46173873  0.36625545  0.06664471     0.45200
H703        H  0.25911628  0.39280571  0.12326235     0.36700
O704        O  0.46876052  0.44227368  0.54093618    -0.80100
O705        O  0.53418034  0.45154037  0.95392315    -0.80100
O706        O  0.44909165  0.47062554  0.95756862    -0.80100
O707        O  0.58987729  0.48615302  0.54193147    -0.80100
O708        O  0.48244871  0.48209147  0.90254167    -0.80200
O709        O  0.54581091  0.44087989  0.54805805    -0.80100
O710        O  0.58468254  0.48844379  0.96285144    -0.80100
O711        O  0.42662758  0.48715278  0.53218088    -0.80100
C712        C  0.43458403  0.45283123  0.54248570     1.09600
C713        C  0.56961878  0.45720381  0.95005597     1.09500
C714        C  0.45504597  0.46491021  0.92021238     1.09600
C715        C  0.58032661  0.45112937  0.54867607     1.09500
O716        O  0.54273498  0.51185660  0.59219972    -0.80100
O717        O  0.47137880  0.54848580  0.94238139    -0.80200
O718        O  0.46591281  0.55932797  0.53161365    -0.80100
O719        O  0.54754820  0.56596018  0.97055879    -0.80100
O720        O  0.54204924  0.52773023  0.92116498    -0.80100
O721        O  0.46722886  0.51770776  0.58208476    -0.80100
O722        O  0.55205587  0.55988328  0.54958072    -0.80100
O723        O  0.41643630  0.53986804  0.97382662    -0.80100
Co724      Co  0.50618852  0.47838533  0.56268108     1.51500
Co725      Co  0.50215708  0.49754308  0.95155323     1.51700
Co726      Co  0.46070548  0.51712072  0.99473935     1.51600
Co727      Co  0.56574674  0.52503580  0.50614412     1.51500
O728        O  0.51333764  0.50315047  0.50885060    -1.42000
C729        C  0.55164004  0.54697199  0.58473015     1.09500
C730        C  0.43589882  0.55691514  0.94694372     1.09600
C731        C  0.45889449  0.55114032  0.56762116     1.09600
C732        C  0.55352733  0.55952021  0.93464131     1.09500
O733        O  0.51250282  0.96604073  0.58189309    -0.80100
O734        O  0.51564259  0.04079167  0.91953869    -0.80100
O735        O  0.55154780  0.94931862  0.95591813    -0.80100
O736        O  0.52391896  0.09549626  0.53215919    -0.80100
O737        O  0.51185598  0.96266670  0.90842297    -0.80200
O738        O  0.53594533  0.03803205  0.55860894    -0.80100
O739        O  0.55003320  0.04819583  0.97313776    -0.80100
O740        O  0.55177559  0.95403974  0.53367748    -0.80100
C741        C  0.54481030  0.95437571  0.57017088     1.09600
C742        C  0.54666141  0.05049834  0.93584697     1.09500
C743        C  0.54404476  0.94986519  0.91965053     1.09600
C744        C  0.54276377  0.07482849  0.55623568     1.09500
O745        O  0.46737015  0.02900687  0.59759906    -0.80100
O746        O  0.43653865  0.96248170  0.94751276    -0.80200
O747        O  0.47284948  0.92199030  0.53841959    -0.80100
O748        O  0.47732809  0.08474941  0.96674587    -0.80100
O749        O  0.43816103  0.03838201  0.95563796    -0.80100
O750        O  0.43911559  0.97521705  0.54712157    -0.80100
O751        O  0.45475691  0.05951972  0.54168619    -0.80100
O752        O  0.47634606  0.91464396  0.95689839    -0.80100
Co753      Co  0.48564752  0.00695705  0.54939559     1.51500
Co754      Co  0.47591738  0.00105328  0.93616961     1.51700
Co755      Co  0.51243781  0.93846420  0.49642275     1.51600
Co756      Co  0.50420225  0.05038216  0.50702461     1.51500
O757        O  0.49478687  0.99435999  0.49191044    -1.42000
C758        C  0.44808635  0.05431023  0.57927942     1.09500
C759        C  0.44448564  0.92717445  0.94472016     1.09600
C760        C  0.44242561  0.93874135  0.55074705     1.09600
C761        C  0.44582362  0.07380154  0.95305487     1.09500
O762        O  0.94447376  0.55953341  0.53888677    -0.80100
O763        O  0.03263886  0.55913617  0.97141755    -0.80100
O764        O  0.02813640  0.54388220  0.56039414    -0.80100
O765        O  0.94834319  0.51698339  0.91362860    -0.80100
O766        O  0.08275730  0.53639548  0.52796483    -0.80200
O767        O  0.93544969  0.55802571  0.96118359    -0.80100
O768        O  0.02571017  0.52180601  0.91950551    -0.80100
O769        O  0.95851410  0.51936205  0.58609570    -0.80100
C770        C  0.94667565  0.55224339  0.57519884     1.09600
C771        C  0.03596680  0.55400704  0.93434303     1.09500
C772        C  0.06340557  0.55352558  0.55455293     1.09600
C773        C  0.93491040  0.54950875  0.92510459     1.09500
O774        O  0.90361462  0.48032108  0.96540269    -0.80100
O775        O  0.05105979  0.46475463  0.54392375    -0.80200
O776        O  0.96678347  0.44445679  0.55136565    -0.80100
O777        O  0.02614737  0.44338330  0.95715800    -0.80100
O778        O  0.07013559  0.48598759  0.96637250    -0.80100
O779        O  0.91420593  0.47869163  0.54612072    -0.80100
O780        O  0.95114241  0.44075283  0.95412424    -0.80100
O781        O  0.01959119  0.47548522  0.59966188    -0.80100
Co782      Co  0.92796184  0.51861768  0.50287976     1.51500
Co783      Co  0.03795425  0.51373097  0.50731917     1.51700
Co784      Co  0.99751922  0.49232987  0.55206922     1.51600
Co785      Co  0.98777547  0.48123475  0.93959057     1.51500
O786        O  0.98300682  0.50142537  0.49550631    -1.42000
C787        C  0.91613307  0.44762117  0.95382267     1.09500
C788        C  0.04588264  0.45772044  0.58163771     1.09600
C789        C  0.93130520  0.44783541  0.55759047     1.09600
C790        C  0.06045841  0.45294377  0.95414538     1.09500
C791        C  0.25669863  0.26349523  0.79193984     0.45500
H792        H  0.26072158  0.26499381  0.82443987    -0.03500
C793        C  0.24768006  0.26016604  0.71626999     0.45600
H794        H  0.24384143  0.25862588  0.68373378    -0.03500
C795        C  0.28211326  0.29199024  0.76837203    -0.17200
C796        C  0.26715809  0.22378870  0.77490797    -0.17000
C797        C  0.21622559  0.27451965  0.77952106    -0.17300
C798        C  0.27722138  0.29039465  0.72817094    -0.17300
C799        C  0.26285370  0.22184574  0.73442884    -0.16900
C800        C  0.21135068  0.27275176  0.73904498    -0.17200
C801        C  0.75069186  0.25032809  0.71417034     0.45500
H802        H  0.75622886  0.25233996  0.68168912    -0.03500
C803        C  0.73847455  0.24521712  0.78960824     0.45600
H804        H  0.73306167  0.24192403  0.82198311    -0.03500
C805        C  0.72047122  0.27894103  0.72933251    -0.17200
C806        C  0.73519685  0.21024615  0.72712133    -0.17000
C807        C  0.78590199  0.26072959  0.73841101    -0.17300
C808        C  0.71351524  0.27608014  0.76948335    -0.17300
C809        C  0.72992238  0.20748457  0.76758174    -0.16900
C810        C  0.77930195  0.25894070  0.77901318    -0.17200
C811        C  0.24779047  0.74591536  0.70925470     0.45500
H812        H  0.24641532  0.74973272  0.67658601    -0.03500
C813        C  0.25077969  0.73677074  0.78531641     0.45600
H814        H  0.25287214  0.73341775  0.81781364    -0.03500
C815        C  0.27437833  0.71300742  0.72181102    -0.17200
C816        C  0.26389043  0.78184931  0.73052159    -0.17000
C817        C  0.20919901  0.73395027  0.72874490    -0.17300
C818        C  0.27571804  0.70805568  0.76201124    -0.17300
C819        C  0.26523897  0.77694362  0.77119762    -0.16900
C820        C  0.21030999  0.73018543  0.76970503    -0.17200
C821        C  0.75225444  0.76070094  0.77873719     0.45500
H822        H  0.75668557  0.76501801  0.81086666    -0.03500
C823        C  0.74293337  0.75132838  0.70346911     0.45600
H824        H  0.73802623  0.74827408  0.67174666    -0.03500
C825        C  0.72236007  0.73037244  0.76989960    -0.17200
C826        C  0.73767107  0.79768608  0.75688535    -0.17000
C827        C  0.78790252  0.74429048  0.75709938    -0.17300
C828        C  0.71689277  0.72539429  0.73023376    -0.17300
C829        C  0.73378492  0.79271440  0.71667861    -0.16900
C830        C  0.78387151  0.74176901  0.71638512    -0.17200
C831        C  0.15752572  0.64863450  0.68320684    -0.27600
C832        C  0.13857708  0.66647172  0.65172544     0.02000
C833        C  0.14200487  0.70695050  0.64615771     0.30100
C834        C  0.16408152  0.72884272  0.67215468    -0.19400
C835        C  0.18284550  0.71088618  0.70391454    -0.28800
C836        C  0.17975613  0.67023015  0.70885091     0.44200
C837        C  0.11636795  0.64157152  0.62487896     0.05300
O838        O  0.12319184  0.72537954  0.61606365    -0.57300
H839        H  0.16677304  0.75988269  0.66738813     0.18300
O840        O  0.20038369  0.65096700  0.73701540    -0.64000
H841        H  0.15591503  0.61742543  0.68731573     0.16700
C842        C  0.12750031  0.63660844  0.58494019     0.29000
C843        C  0.10966657  0.60841081  0.56199301    -0.24900
C844        C  0.08047196  0.58488835  0.57825822    -0.24200
C845        C  0.06867271  0.59071786  0.61790951     0.40400
C846        C  0.08674670  0.61858170  0.64084944    -0.26600
O847        O  0.15678551  0.65803751  0.56850719    -0.58500
H848        H  0.11906472  0.60455314  0.53155956     0.16100
O849        O  0.04141089  0.56738991  0.63547232    -0.59900
H850        H  0.07832730  0.62150441  0.67170413     0.14500
H851        H  0.18140463  0.63839763  0.75515001     0.46400
H852        H  0.18025065  0.64375007  0.57549111     0.41800
H853        H  0.01756515  0.58263627  0.63445533     0.45200
H854        H  0.14311116  0.73228114  0.59601251     0.36700
C855        C  0.08503886  0.60612802  0.84614109    -0.27600
C856        C  0.09958030  0.63931871  0.86412821     0.02000
C857        C  0.09105982  0.64549602  0.90444246     0.30100
C858        C  0.06888321  0.61849809  0.92627568    -0.19400
C859        C  0.05541463  0.58431724  0.90888840    -0.28800
C860        C  0.06354292  0.57859115  0.86811234     0.44200
C861        C  0.12670182  0.66513941  0.84173122     0.05300
O862        O  0.10431477  0.67799825  0.92272505    -0.57300
H863        H  0.06326909  0.62391298  0.95736629     0.18300
O864        O  0.05140927  0.54585626  0.84945138    -0.64000
H865        H  0.09169610  0.60073336  0.81524025     0.16700
C866        C  0.16542004  0.66479604  0.85084741     0.29000
C867        C  0.19143000  0.68691832  0.82820761    -0.24900
C868        C  0.18009325  0.71034508  0.79583228    -0.24200
C869        C  0.14059025  0.71256767  0.78842351     0.40400
C870        C  0.11445162  0.68955664  0.81084834    -0.26600
O871        O  0.17849566  0.64115612  0.88068081    -0.58500
H872        H  0.22085021  0.68414760  0.83592681     0.16100
O873        O  0.12711951  0.73830671  0.76065065    -0.59900
H874        H  0.08446109  0.69097151  0.80423534     0.14500
H875        H  0.07309513  0.52751492  0.85065559     0.46400
H876        H  0.18566504  0.65887162  0.90222139     0.41800
H877        H  0.11188303  0.72274744  0.74218047     0.45200
H878        H  0.12426315  0.66862458  0.94089583     0.36700
C879        C  0.10602923  0.36161954  0.91399614    -0.27600
C880        C  0.12788872  0.37652219  0.88210347     0.02000
C881        C  0.12953954  0.41706463  0.87589509     0.30100
C882        C  0.10938576  0.44197860  0.90128064    -0.19400
C883        C  0.08697656  0.42701055  0.93271598    -0.28800
C884        C  0.08543565  0.38648310  0.93898218     0.44200
C885        C  0.14993068  0.34968037  0.85630912     0.05300
O886        O  0.14891642  0.43234772  0.84364485    -0.57300
H887        H  0.10976098  0.47293154  0.89516765     0.18300
O888        O  0.06416047  0.37097548  0.96979343    -0.64000
H889        H  0.10486219  0.33058401  0.91947124     0.16700
C890        C  0.18973862  0.35231478  0.85396920     0.29000
C891        C  0.21043688  0.32742622  0.82949333    -0.24900
C892        C  0.19238042  0.29911216  0.80673554    -0.24200
C893        C  0.15244800  0.29584889  0.80968476     0.40400
C894        C  0.13152215  0.32096788  0.83441028    -0.26600
O895        O  0.20882836  0.37920684  0.87564291    -0.58500
H896        H  0.24090231  0.33101931  0.82809480     0.16100
O897        O  0.13362829  0.26844138  0.78847749    -0.59900
H898        H  0.10084444  0.31832399  0.83618881     0.14500
H899        H  0.04012744  0.36228247  0.95781202     0.46400
H900        H  0.21426207  0.36597916  0.90117966     0.41800
H901        H  0.13295604  0.24495852  0.80577109     0.45200
H902        H  0.17125367  0.44581293  0.85451540     0.36700
C903        C  0.08630246  0.39647870  0.66604587    -0.27600
C904        C  0.11324538  0.37346955  0.64637682     0.02000
C905        C  0.11740725  0.37735888  0.60487185     0.30100
C906        C  0.09530974  0.40454789  0.58389748    -0.19400
C907        C  0.06875706  0.42825649  0.60376998    -0.28800
C908        C  0.06436682  0.42359463  0.64541035     0.44200
C909        C  0.13798182  0.34725899  0.67015298     0.05300
O910        O  0.14350191  0.35528935  0.58463124    -0.57300
H911        H  0.09921701  0.40726117  0.55207675     0.18300
O912        O  0.03875228  0.44543489  0.66660388    -0.64000
H913        H  0.08252030  0.39370562  0.69789429     0.16700
C914        C  0.16060113  0.36245940  0.70026467     0.29000
C915        C  0.18316298  0.33783428  0.72324234    -0.24900
C916        C  0.18353931  0.29755461  0.71726560    -0.24200
C917        C  0.16138993  0.28231802  0.68680895     0.40400
C918        C  0.13862225  0.30705021  0.66367039    -0.26600
O919        O  0.16146022  0.40161419  0.70694404    -0.58500
H920        H  0.20145377  0.35055178  0.74497717     0.16100
O921        O  0.16148323  0.24322132  0.67980680    -0.59900
H922        H  0.12131189  0.29480511  0.64076377     0.14500
H923        H  0.05333521  0.46826957  0.67545607     0.46400
H924        H  0.18199662  0.41187685  0.68919943     0.41800
H925        H  0.17914786  0.23976573  0.65689587     0.45200
H926        H  0.16737918  0.37059935  0.58453034     0.36700
C927        C  0.85457929  0.39466167  0.61949409    -0.27600
C928        C  0.87523161  0.36385564  0.63631655     0.02000
C929        C  0.91368543  0.35930331  0.62478288     0.30100
C930        C  0.93102388  0.38582848  0.59803885    -0.19400
C931        C  0.91075140  0.41755883  0.58216639    -0.28800
C932        C  0.87182489  0.42120160  0.59275723     0.44200
C933        C  0.85626513  0.33693924  0.66581243     0.05300
O934        O  0.93493350  0.32958879  0.64027512    -0.57300
H935        H  0.96087636  0.38202905  0.59062273     0.18300
O936        O  0.85043091  0.45121958  0.57816572    -0.64000
H937        H  0.82476927  0.39828628  0.62724083     0.16700
C938        C  0.83591607  0.35138373  0.69891265     0.29000
C939        C  0.81537883  0.32606840  0.72426199    -0.24900
C940        C  0.81490596  0.28588745  0.71762372    -0.24200
C941        C  0.83638938  0.27128117  0.68551212     0.40400
C942        C  0.85687922  0.29660433  0.66004006    -0.26600
O943        O  0.83481653  0.39044223  0.70602135    -0.58500
H944        H  0.79795504  0.33819634  0.74779776     0.16100
O945        O  0.83580821  0.23239391  0.67749623    -0.59900
H946        H  0.87199518  0.28478725  0.63470600     0.14500
H947        H  0.83844925  0.44090264  0.55412697     0.46400
H948        H  0.85736343  0.39560766  0.72232635     0.41800
H949        H  0.85714920  0.22115668  0.69261333     0.45200
H950        H  0.94821490  0.34093996  0.66303246     0.36700
C951        C  0.84114841  0.40065064  0.89060521    -0.27600
C952        C  0.85506183  0.36239988  0.88823673     0.02000
C953        C  0.88628028  0.35169597  0.91138629     0.30100
C954        C  0.90416662  0.37928564  0.93469303    -0.19400
C955        C  0.89142502  0.41801039  0.93574303    -0.28800
C956        C  0.85899483  0.42832449  0.91412173     0.44200
C957        C  0.83663056  0.33396349  0.86180005     0.05300
O958        O  0.89993670  0.31443543  0.91102209    -0.57300
H959        H  0.92894785  0.37054059  0.95119092     0.18300
O960        O  0.84560364  0.46569539  0.91413119    -0.64000
H961        H  0.81706495  0.40948023  0.87309239     0.16700
C962        C  0.79720338  0.32810176  0.86408071     0.29000
C963        C  0.77967140  0.30328356  0.83776006    -0.24900
C964        C  0.80055585  0.28272452  0.80872447    -0.24200
C965        C  0.84057798  0.28668460  0.80820745     0.40400
C966        C  0.85816277  0.31263920  0.83402662    -0.26600
O967        O  0.77529300  0.34666692  0.89201327    -0.58500
H968        H  0.74920914  0.30109512  0.84031860     0.16100
O969        O  0.86286552  0.26574707  0.78253218    -0.59900
H970        H  0.88871914  0.31639724  0.83206813     0.14500
H971        H  0.85947267  0.47911302  0.89205303     0.46400
H972        H  0.77489471  0.32901889  0.91548732     0.41800
H973        H  0.86334446  0.23905923  0.79383614     0.45200
H974        H  0.88551649  0.30054668  0.93238624     0.36700
C975        C  0.90730190  0.61071386  0.83397972    -0.27600
C976        C  0.87849424  0.63450810  0.85017406     0.02000
C977        C  0.86775335  0.62883981  0.89015642     0.30100
C978        C  0.88613793  0.60079808  0.91343499    -0.19400
C979        C  0.91553590  0.57746675  0.89779317    -0.28800
C980        C  0.92586862  0.58251884  0.85748637     0.44200
C981        C  0.85781173  0.66338257  0.82494797     0.05300
O982        O  0.83781525  0.64920379  0.90617575    -0.57300
H983        H  0.87690588  0.59704368  0.94404937     0.18300
O984        O  0.95438051  0.56064591  0.84092833    -0.64000
H985        H  0.91559764  0.61423426  0.80307726     0.16700
C986        C  0.85754354  0.70343888  0.83333372     0.29000
C987        C  0.83527556  0.72940481  0.81083084    -0.24900
C988        C  0.81281348  0.71618900  0.77978695    -0.24200
C989        C  0.81297486  0.67583774  0.77179666     0.40400
C990        C  0.83555188  0.65017137  0.79395713    -0.26600
O991        O  0.87963431  0.71752868  0.86296120    -0.58500
H992        H  0.83549421  0.76000280  0.81773276     0.16100
O993        O  0.78968706  0.66087833  0.74362692    -0.59900
H994        H  0.83466395  0.61943659  0.78767624     0.14500
H995        H  0.97812271  0.57503762  0.84623236     0.46400
H996        H  0.86152796  0.72601543  0.88397404     0.41800
H997        H  0.80659845  0.64721906  0.72455968     0.45200
H998        H  0.84909737  0.66649801  0.92603301     0.36700
C999        C  0.83213738  0.67573257  0.63973746    -0.27600
C1000       C  0.86808654  0.67219808  0.65614170     0.02000
C1001       C  0.87880360  0.69781665  0.68575699     0.30100
C1002       C  0.85216067  0.72404684  0.70119649    -0.19400
C1003       C  0.81374185  0.72332874  0.68957281    -0.28800
C1004       C  0.80483404  0.70093928  0.65581568     0.44200
C1005       C  0.89332480  0.64087759  0.64216271     0.05300
O1006       O  0.91458303  0.69616751  0.70112865    -0.57300
H1007       H  0.86100069  0.74298438  0.72462407     0.18300
O1008       O  0.77032681  0.70375940  0.63763253    -0.64000
H1009       H  0.82474928  0.65771817  0.61495107     0.16700
C1010       C  0.88296703  0.60174771  0.64859378     0.29000
C1011       C  0.90339800  0.57224741  0.62969976    -0.24900
C1012       C  0.93330201  0.58153260  0.60331010    -0.24200
C1013       C  0.94491991  0.62048338  0.59852559     0.40400
C1014       C  0.92523457  0.64989027  0.61838835    -0.26600
O1015       O  0.85204118  0.59228948  0.67216980    -0.58500
H1016       H  0.89393996  0.54243722  0.63319624     0.16100
O1017       O  0.97482450  0.63005712  0.57357897    -0.59900
H1018       H  0.93340194  0.67988987  0.61328375     0.14500
H1019       H  0.76260515  0.67727316  0.62987405     0.46400
H1020       H  0.83082102  0.58844852  0.65365784     0.41800
H1021       H  0.96309959  0.63848870  0.54839588     0.45200
H1022       H  0.91268216  0.67712850  0.72339760     0.36700
C1023       C  0.60895146  0.07955553  0.84704070    -0.27600
C1024       C  0.63359798  0.10653394  0.86375131     0.02000
C1025       C  0.63094038  0.11339082  0.90474559     0.30100
C1026       C  0.60341305  0.09388806  0.92814908    -0.19400
C1027       C  0.57794223  0.06767887  0.91121164    -0.28800
C1028       C  0.58140727  0.06017109  0.87033744     0.44200
C1029       C  0.65935140  0.12976789  0.83738585     0.05300
O1030       O  0.65306851  0.14127764  0.92156817    -0.57300
H1031       H  0.60099170  0.10058409  0.95935753     0.18300
O1032       O  0.55766389  0.03435530  0.85266041    -0.64000
H1033       H  0.61065811  0.07398423  0.81554597     0.16700
C1034       C  0.69890290  0.13125350  0.84314493     0.29000
C1035       C  0.72180403  0.15549933  0.81901452    -0.24900
C1036       C  0.70593198  0.17786572  0.78847797    -0.24200
C1037       C  0.66648322  0.17572196  0.78217063     0.40400
C1038       C  0.64363406  0.15169755  0.80646153    -0.26600
O1039       O  0.71535337  0.10962146  0.87258783    -0.58500
H1040       H  0.75198041  0.15744157  0.82459175     0.16100
O1041       O  0.64959121  0.19971052  0.75488092    -0.59900
H1042       H  0.61319289  0.15133924  0.80207072     0.14500
H1043       H  0.57284899  0.01030279  0.85002546     0.46400
H1044       H  0.71953798  0.08363535  0.86105052     0.41800
H1045       H  0.63694304  0.18233440  0.73600236     0.45200
H1046       H  0.67117369  0.12690046  0.93848665     0.36700
C1047       C  0.59241622  0.14009501  0.62869745    -0.27600
C1048       C  0.62980874  0.12547385  0.62824110     0.02000
C1049       C  0.63802297  0.09291603  0.60461613     0.30100
C1050       C  0.60943612  0.07621476  0.58163717    -0.19400
C1051       C  0.57268119  0.09221512  0.58083898    -0.28800
C1052       C  0.56423070  0.12405102  0.60506348     0.44200
C1053       C  0.65993239  0.14586371  0.65098279     0.05300
O1054       O  0.67405142  0.07777416  0.60295479    -0.57300
H1055       H  0.61626207  0.05133504  0.56357141     0.18300
O1056       O  0.52826908  0.13944124  0.60627031    -0.64000
H1057       H  0.58501318  0.16433344  0.64739440     0.16700
C1058       C  0.66448173  0.18631973  0.64695782     0.29000
C1059       C  0.69080556  0.20591475  0.66993756    -0.24900
C1060       C  0.71291035  0.18641384  0.69829774    -0.24200
C1061       C  0.71022303  0.14551715  0.70057758     0.40400
C1062       C  0.68371372  0.12563253  0.67734617    -0.26600
O1063       O  0.64355735  0.20707894  0.62006067    -0.58500
H1064       H  0.69237474  0.23700472  0.66634843     0.16100
O1065       O  0.73271299  0.12477500  0.72593615    -0.59900
H1066       H  0.68108939  0.09444629  0.68071589     0.14500
H1067       H  0.51358651  0.12252070  0.62501294     0.46400
H1068       H  0.62562180  0.22293384  0.63608442     0.41800
H1069       H  0.75549191  0.11761157  0.70991152     0.45200
H1070       H  0.68779589  0.09348372  0.58242897     0.36700
C1071       C  0.36407045  0.12159648  0.60134429    -0.27600
C1072       C  0.36124199  0.11914584  0.64288993     0.02000
C1073       C  0.38635986  0.09442070  0.66318228     0.30100
C1074       C  0.41388562  0.07311712  0.64210103    -0.19400
C1075       C  0.41742483  0.07620860  0.60052274    -0.28800
C1076       C  0.39186768  0.10070081  0.58022168     0.44200
C1077       C  0.33403210  0.14467066  0.66481134     0.05300
O1078       O  0.38500665  0.09170626  0.70375438    -0.57300
H1079       H  0.43309358  0.05471262  0.65858881     0.18300
O1080       O  0.39337127  0.10421881  0.53970737    -0.64000
H1081       H  0.34485008  0.14025912  0.58515999     0.16700
C1082       C  0.33564844  0.18514882  0.65926088     0.29000
C1083       C  0.31115999  0.20925330  0.68078817    -0.24900
C1084       C  0.28492471  0.19413350  0.70891232    -0.24200
C1085       C  0.28264086  0.15352314  0.71401935     0.40400
C1086       C  0.30700584  0.12909593  0.69196173    -0.26600
O1087       O  0.36284354  0.20163600  0.63466394    -0.58500
H1088       H  0.31396972  0.24013857  0.67627969     0.16100
O1089       O  0.25621973  0.13753747  0.73981893    -0.59900
H1090       H  0.30495690  0.09795318  0.69623891     0.14500
H1091       H  0.40966627  0.12720591  0.53403432     0.46400
H1092       H  0.34900271  0.21094489  0.61105533     0.41800
H1093       H  0.27097538  0.12686607  0.76220472     0.45200
H1094       H  0.40157799  0.11293825  0.71294709     0.36700
C1095       C  0.35867441  0.10743877  0.89735642    -0.27600
C1096       C  0.37078237  0.14254387  0.87988203     0.02000
C1097       C  0.40685932  0.15728063  0.88996203     0.30100
C1098       C  0.43065074  0.13586381  0.91551319    -0.19400
C1099       C  0.41893491  0.09980205  0.93150748    -0.28800
C1100       C  0.38186790  0.08652629  0.92308872     0.44200
C1101       C  0.34470016  0.16299563  0.85189010     0.05300
O1102       O  0.41849165  0.19308140  0.87612746    -0.57300
H1103       H  0.45864120  0.14701793  0.92190100     0.18300
O1104       O  0.36807257  0.05238089  0.93904499    -0.64000
H1105       H  0.33104891  0.09562045  0.89049312     0.16700
C1106       C  0.35693556  0.17581244  0.81383115     0.29000
C1107       C  0.33132416  0.19418501  0.78824173    -0.24900
C1108       C  0.29274683  0.19863227  0.79906625    -0.24200
C1109       C  0.28032631  0.18494126  0.83655154     0.40400
C1110       C  0.30605689  0.16737632  0.86249212    -0.26600
O1111       O  0.39373783  0.17028807  0.80107733    -0.58500
H1112       H  0.34203389  0.20593490  0.76031583     0.16100
O1113       O  0.24287477  0.18858863  0.84803295    -0.59900
H1114       H  0.29573819  0.15744322  0.89131936     0.14500
H1115       H  0.35727850  0.05933117  0.96534502     0.46400
H1116       H  0.39431978  0.14367063  0.79030428     0.41800
H1117       H  0.24233455  0.20959036  0.86781614     0.45200
H1118       H  0.44120536  0.18822909  0.85905185     0.36700
C1119       C  0.65736343  0.83443029  0.64883485    -0.27600
C1120       C  0.66122306  0.87417731  0.65515024     0.02000
C1121       C  0.69172410  0.88751751  0.67755251     0.30100
C1122       C  0.71664090  0.86077876  0.69514611    -0.19400
C1123       C  0.71138203  0.82045238  0.69117578    -0.28800
C1124       C  0.68171396  0.80756102  0.66666416     0.44200
C1125       C  0.63251644  0.90072388  0.63819014     0.05300
O1126       O  0.69605370  0.92639444  0.68429345    -0.57300
H1127       H  0.73921649  0.87153628  0.71343063     0.18300
O1128       O  0.67521941  0.76886564  0.66071497    -0.64000
H1129       H  0.63444789  0.82397810  0.63077061     0.16700
C1130       C  0.64176521  0.92492236  0.60561795     0.29000
C1131       C  0.61291667  0.94449392  0.58552875    -0.24900
C1132       C  0.57449348  0.94012810  0.59724248    -0.24200
C1133       C  0.56545332  0.91750534  0.63114129     0.40400
C1134       C  0.59441046  0.89791100  0.65129222    -0.26600
O1135       O  0.67859924  0.92785291  0.59180971    -0.58500
H1136       H  0.62047002  0.96177512  0.55948606     0.16100
O1137       O  0.52834843  0.91227831  0.64327024    -0.59900
H1138       H  0.58694945  0.87903738  0.67618036     0.14500
H1139       H  0.64882665  0.76377554  0.67018925     0.46400
H1140       H  0.68140725  0.90720191  0.57179337     0.41800
H1141       H  0.51921710  0.88964954  0.62828588     0.45200
H1142       H  0.71665791  0.93504038  0.66576968     0.36700
C1143       C  0.59431205  0.90781221  0.82762434    -0.27600
C1144       C  0.62870567  0.89423178  0.84376842     0.02000
C1145       C  0.63499785  0.90070227  0.88424842     0.30100
C1146       C  0.60795819  0.92028033  0.90734272    -0.19400
C1147       C  0.57304667  0.93283590  0.89178063    -0.28800
C1148       C  0.56642446  0.92633834  0.85130929     0.44200
C1149       C  0.65685335  0.87145586  0.81932948     0.05300
O1150       O  0.66690311  0.88664882  0.90226564    -0.57300
H1151       H  0.61411285  0.92438503  0.93831904     0.18300
O1152       O  0.53226896  0.93626484  0.83502131    -0.64000
H1153       H  0.58867123  0.90362678  0.79656072     0.16700
C1154       C  0.64469887  0.84160516  0.79435011     0.29000
C1155       C  0.67135112  0.81919706  0.77364294    -0.24900
C1156       C  0.71067193  0.82424281  0.77829626    -0.24200
C1157       C  0.72312977  0.85392815  0.80297050     0.40400
C1158       C  0.69642529  0.87778344  0.82251975    -0.26600
O1159       O  0.60685000  0.83292453  0.79097903    -0.58500
H1160       H  0.66120452  0.79679689  0.75452673     0.16100
O1161       O  0.76123699  0.86054035  0.80736849    -0.59900
H1162       H  0.70678408  0.90108425  0.84059647     0.14500
H1163       H  0.53785781  0.95851707  0.81692437     0.46400
H1164       H  0.60171544  0.81229078  0.81114794     0.41800
H1165       H  0.76891684  0.84297576  0.82930313     0.45200
H1166       H  0.66077015  0.85936346  0.90960869     0.36700
C1167       C  0.35503164  0.89158393  0.89544809    -0.27600
C1168       C  0.36934414  0.86246535  0.87074654     0.02000
C1169       C  0.40847586  0.85323836  0.87218211     0.30100
C1170       C  0.43229420  0.87287420  0.89826970    -0.19400
C1171       C  0.41793895  0.90231784  0.92264537    -0.28800
C1172       C  0.37887940  0.91165993  0.92083721     0.44200
C1173       C  0.34262750  0.84116449  0.84497437     0.05300
O1174       O  0.42407724  0.82696223  0.84635688    -0.57300
H1175       H  0.46242864  0.86632321  0.89798011     0.18300
O1176       O  0.36357584  0.94026013  0.94407373    -0.64000
H1177       H  0.32506522  0.89883599  0.89512375     0.16700
C1178       C  0.34038936  0.80051646  0.84698189     0.29000
C1179       C  0.31404023  0.78086687  0.82434292    -0.24900
C1180       C  0.28959746  0.80049693  0.79822418    -0.24200
C1181       C  0.29064492  0.84140629  0.79729848     0.40400
C1182       C  0.31692545  0.86139792  0.82065980    -0.26600
O1183       O  0.36336196  0.77947339  0.87166054    -0.58500
H1184       H  0.31338189  0.74979389  0.82739732     0.16100
O1185       O  0.26501610  0.86196842  0.77517781    -0.59900
H1186       H  0.31728426  0.89282485  0.81969137     0.14500
H1187       H  0.36084053  0.96313401  0.92617302     0.46400
H1188       H  0.34978097  0.77875719  0.89762232     0.41800
H1189       H  0.28038616  0.87713561  0.75550690     0.45200
H1190       H  0.43473121  0.80587829  0.86311011     0.36700
C1191       C  0.34966983  0.83604621  0.68484320    -0.27600
C1192       C  0.33324025  0.85599889  0.65304131     0.02000
C1193       C  0.29346926  0.85397848  0.64878646     0.30100
C1194       C  0.27115132  0.83121883  0.67535565    -0.19400
C1195       C  0.28769276  0.81050562  0.70681307    -0.28800
C1196       C  0.32761454  0.81309972  0.71113270     0.44200
C1197       C  0.35860532  0.87685926  0.62373894     0.05300
O1198       O  0.27651054  0.87199468  0.61724937    -0.57300
H1199       H  0.24085846  0.82881133  0.67066241     0.18300
O1200       O  0.34590474  0.79099308  0.73892626    -0.64000
H1201       H  0.38020722  0.83700574  0.68846840     0.16700
C1202       C  0.35533146  0.91705647  0.61657675     0.29000
C1203       C  0.38170333  0.93635793  0.59144964    -0.24900
C1204       C  0.41221718  0.91638478  0.57321280    -0.24200
C1205       C  0.41470625  0.87583217  0.57958216     0.40400
C1206       C  0.38828975  0.85662105  0.60471293    -0.26600
O1207       O  0.32741272  0.93812937  0.63526465    -0.58500
H1208       H  0.37892369  0.96746109  0.58743732     0.16100
O1209       O  0.44354140  0.85470058  0.56256334    -0.59900
H1210       H  0.39132800  0.82567694  0.60984552     0.14500
H1211       H  0.36135303  0.77203243  0.72376998     0.46400
H1212       H  0.33796994  0.94481156  0.66133933     0.41800
H1213       H  0.43337279  0.84577937  0.53704710     0.45200
H1214       H  0.26222343  0.89411022  0.62867720     0.36700
C1215       C  0.31689434  0.62880955  0.82585046    -0.27600
C1216       C  0.35303979  0.64432472  0.83263833     0.02000
C1217       C  0.36567169  0.67683515  0.81047530     0.30100
C1218       C  0.34095798  0.69511563  0.78443714    -0.19400
C1219       C  0.30320233  0.68266438  0.78193088    -0.28800
C1220       C  0.29155212  0.64821225  0.80111329     0.44200
C1221       C  0.37643826  0.62688516  0.86383124     0.05300
O1222       O  0.40120408  0.69218682  0.81559699    -0.57300
H1223       H  0.35034746  0.72094087  0.76866777     0.18300
O1224       O  0.25619333  0.63288071  0.79445486    -0.64000
H1225       H  0.30788241  0.60226723  0.84083437     0.16700
C1226       C  0.36091162  0.62012679  0.90204869     0.29000
C1227       C  0.38169159  0.59935992  0.92995763    -0.24900
C1228       C  0.41804009  0.58531714  0.92032283    -0.24200
C1229       C  0.43483646  0.59510857  0.88317935     0.40400
C1230       C  0.41376704  0.61532421  0.85507330    -0.26600
O1231       O  0.32544928  0.63379159  0.91227061    -0.58500
H1232       H  0.36873767  0.59309640  0.95871599     0.16100
O1233       O  0.47066669  0.58269074  0.87284013    -0.59900
H1234       H  0.42607759  0.62050874  0.82581993     0.14500
H1235       H  0.24600144  0.62320796  0.82035240     0.46400
H1236       H  0.30883023  0.61054551  0.91430067     0.41800
H1237       H  0.48786676  0.60410979  0.88026700     0.45200
H1238       H  0.39820819  0.71063264  0.83772040     0.36700
C1239       C  0.40630259  0.59984031  0.65212120    -0.27600
C1240       C  0.38089885  0.62324903  0.63090513     0.02000
C1241       C  0.38359569  0.62520921  0.58939856     0.30100
C1242       C  0.41080741  0.60320802  0.56952039    -0.19400
C1243       C  0.43522994  0.57833540  0.59043298    -0.28800
C1244       C  0.43329197  0.57720095  0.63210130     0.44200
C1245       C  0.35156515  0.64565722  0.65206305     0.05300
O1246       O  0.35895545  0.64763739  0.56790949    -0.57300
H1247       H  0.41144425  0.60428685  0.53741849     0.18300
O1248       O  0.45787059  0.55457150  0.65341093    -0.64000
H1249       H  0.40495454  0.59890089  0.68420744     0.16700
C1250       C  0.32453017  0.62714992  0.67699343     0.29000
C1251       C  0.29768563  0.64932435  0.69754857    -0.24900
C1252       C  0.29772553  0.68993740  0.69386464    -0.24200
C1253       C  0.32284895  0.70796926  0.66642694     0.40400
C1254       C  0.35004894  0.68592666  0.64638794    -0.26600
O1255       O  0.32373393  0.58746753  0.68076659    -0.58500
H1256       H  0.27740037  0.63483690  0.71718769     0.16100
O1257       O  0.32241011  0.74722504  0.66021344    -0.59900
H1258       H  0.37038506  0.70040158  0.62670498     0.14500
H1259       H  0.44320724  0.53093046  0.66092765     0.46400
H1260       H  0.33527449  0.58161470  0.70674449     0.41800
H1261       H  0.30795540  0.75129344  0.63558311     0.45200
H1262       H  0.33573153  0.63157780  0.56541715     0.36700
C1263       C  0.60807045  0.60797731  0.85023334    -0.27600
C1264       C  0.63137297  0.63326864  0.87124306     0.02000
C1265       C  0.62748106  0.63548653  0.91256550     0.30100
C1266       C  0.60063256  0.61246821  0.93237094    -0.19400
C1267       C  0.57811188  0.58613068  0.91163245    -0.28800
C1268       C  0.58199588  0.58391378  0.87023004     0.44200
C1269       C  0.65906974  0.65770651  0.84952935     0.05300
O1270       O  0.65027717  0.65947145  0.93391598    -0.57300
H1271       H  0.59854353  0.61430810  0.96435235     0.18300
O1272       O  0.56023764  0.55883665  0.84905106    -0.64000
H1273       H  0.61020304  0.60678572  0.81822090     0.16700
C1274       C  0.68447881  0.64132292  0.82189371     0.29000
C1275       C  0.70693572  0.66547882  0.79786205    -0.24900
C1276       C  0.70426963  0.70588087  0.80091996    -0.24200
C1277       C  0.68173601  0.72208251  0.83120327     0.40400
C1278       C  0.65867477  0.69799354  0.85483946    -0.26600
O1279       O  0.68733641  0.60180713  0.81815977    -0.58500
H1280       H  0.72507353  0.65257192  0.77549175     0.16100
O1281       O  0.67977370  0.76139055  0.83604289    -0.59900
H1282       H  0.63932104  0.71094111  0.87620630     0.14500
H1283       H  0.57642945  0.53560172  0.84504826     0.46400
H1284       H  0.67623031  0.59587003  0.79212452     0.41800
H1285       H  0.69800797  0.76717889  0.85720370     0.45200
H1286       H  0.67222682  0.64320755  0.94174021     0.36700
C1287       C  0.62391227  0.67420281  0.70913070    -0.27600
C1288       C  0.63677665  0.64391597  0.68519326     0.02000
C1289       C  0.67597843  0.63974959  0.67726471     0.30100
C1290       C  0.70162335  0.66647901  0.69235253    -0.19400
C1291       C  0.68875672  0.69774376  0.71478053    -0.28800
C1292       C  0.64963858  0.70094936  0.72421049     0.44200
C1293       C  0.60907267  0.61897981  0.66551951     0.05300
O1294       O  0.68919241  0.61086367  0.65307758    -0.57300
H1295       H  0.73171737  0.66222412  0.68740205     0.18300
O1296       O  0.63646422  0.72975301  0.74849102    -0.64000
H1297       H  0.59380248  0.67739505  0.71567070     0.16700
C1298       C  0.60919824  0.57848888  0.67118021     0.29000
C1299       C  0.58744808  0.55510032  0.64669686    -0.24900
C1300       C  0.56608301  0.57180718  0.61617748    -0.24200
C1301       C  0.56322928  0.61251285  0.61315977     0.40400
C1302       C  0.58472390  0.63580931  0.63775554    -0.26600
O1303       O  0.63091410  0.56174680  0.70014805    -0.58500
H1304       H  0.58940447  0.52383764  0.64987244     0.16100
O1305       O  0.54102411  0.62978158  0.58497675    -0.59900
H1306       H  0.58400507  0.66704618  0.63365114     0.14500
H1307       H  0.61888216  0.74559934  0.73230899     0.46400
H1308       H  0.65048412  0.54620659  0.68601078     0.41800
H1309       H  0.51506746  0.63044618  0.59695689     0.45200
H1310       H  0.70346259  0.59292785  0.67056035     0.36700
C1311       C  0.64657604  0.31438913  0.84893673    -0.27600
C1312       C  0.65232692  0.35450714  0.84538303     0.02000
C1313       C  0.67694503  0.36907333  0.81533590     0.30100
C1314       C  0.69559962  0.34344135  0.78960359    -0.19400
C1315       C  0.68983403  0.30317139  0.79329252    -0.28800
C1316       C  0.66492314  0.28884739  0.82317265     0.44200
C1317       C  0.63164206  0.38057071  0.87280745     0.05300
O1318       O  0.68315387  0.40820659  0.81110155    -0.57300
H1319       H  0.71549564  0.35495846  0.76755451     0.18300
O1320       O  0.65874908  0.24980602  0.82791529    -0.64000
H1321       H  0.62794641  0.30272313  0.87209479     0.16700
C1322       C  0.59174051  0.37932932  0.87551291     0.29000
C1323       C  0.57231581  0.40361482  0.90166530    -0.24900
C1324       C  0.59199083  0.42949681  0.92582869    -0.24200
C1325       C  0.63210046  0.43005516  0.92383187     0.40400
C1326       C  0.65160801  0.40584383  0.89725352    -0.26600
O1327       O  0.57138721  0.35576156  0.85123070    -0.58500
H1328       H  0.54151203  0.40278033  0.90209571     0.16100
O1329       O  0.65252238  0.45421361  0.94737830    -0.59900
H1330       H  0.68240460  0.40653669  0.89593424     0.14500
H1331       H  0.63265757  0.24535912  0.81828418     0.46400
H1332       H  0.56209239  0.33409237  0.86848594     0.41800
H1333       H  0.65494178  0.43995939  0.97294512     0.45200
H1334       H  0.66321815  0.41752396  0.79289586     0.36700
C1335       C  0.66471406  0.41082546  0.60145065    -0.27600
C1336       C  0.65280402  0.37241374  0.60781612     0.02000
C1337       C  0.62142999  0.35816810  0.58720489     0.30100
C1338       C  0.59936162  0.38367998  0.56504916    -0.19400
C1339       C  0.60890027  0.42318784  0.56233997    -0.28800
C1340       C  0.64350664  0.43602861  0.57812474     0.44200
C1341       C  0.67041352  0.34910923  0.63934486     0.05300
O1342       O  0.61071887  0.31996635  0.59062016    -0.57300
H1343       H  0.57364035  0.37293917  0.55181920     0.18300
O1344       O  0.65504964  0.47394287  0.57435977    -0.57500
H1345       H  0.68903611  0.42217034  0.61675573     0.16700
C1346       C  0.71010806  0.34618847  0.64194566     0.29000
C1347       C  0.72582599  0.32521989  0.67303697    -0.24900
C1348       C  0.70257781  0.30640191  0.70156350    -0.24200
C1349       C  0.66286060  0.30954619  0.69926467     0.40400
C1350       C  0.64706409  0.33116318  0.66844421    -0.26600
O1351       O  0.73377516  0.36293237  0.61381065    -0.58500
H1352       H  0.75638299  0.32255361  0.67387621     0.16100
O1353       O  0.63937458  0.28913577  0.72491130    -0.59900
H1354       H  0.61640722  0.33365275  0.66712763     0.14500
H1355       H  0.66990737  0.47519877  0.54909861     0.46400
H1356       H  0.73599819  0.34360742  0.59241887     0.41800
H1357       H  0.62623995  0.30896468  0.74119733     0.45200
H1358       H  0.62811748  0.30583208  0.57241782     0.36700
C1359       C  0.37926448  0.39085688  0.89644349    -0.27600
C1360       C  0.38211196  0.39036671  0.85501416     0.02000
C1361       C  0.40944625  0.41362929  0.83523526     0.30100
C1362       C  0.43331677  0.43733773  0.85689442    -0.19400
C1363       C  0.43045231  0.43819847  0.89844364    -0.28800
C1364       C  0.40311267  0.41452719  0.91823455     0.44200
C1365       C  0.35663359  0.36525588  0.83262747     0.05300
O1366       O  0.41309170  0.41328438  0.79472189    -0.57300
H1367       H  0.45392075  0.45532725  0.84098890     0.18300
O1368       O  0.39983538  0.41363867  0.95879056    -0.64000
H1369       H  0.35820815  0.37306578  0.91194187     0.16700
C1370       C  0.35581313  0.32500185  0.83979446     0.29000
C1371       C  0.33199842  0.30160852  0.81781314    -0.24900
C1372       C  0.30843768  0.31786033  0.78896118    -0.24200
C1373       C  0.30844636  0.35829975  0.78252303     0.40400
C1374       C  0.33286973  0.38167706  0.80399451    -0.26600
O1375       O  0.37913417  0.30820112  0.86727877    -0.58500
H1376       H  0.33199024  0.27059765  0.82336807     0.16100
O1377       O  0.28403222  0.37531872  0.75629144    -0.59900
H1378       H  0.33275740  0.41278570  0.79888045     0.14500
H1379       H  0.37886085  0.43182098  0.96529883     0.46400
H1380       H  0.36232379  0.30168210  0.89035027     0.41800
H1381       H  0.26105439  0.38194329  0.77224961     0.45200
H1382       H  0.43166173  0.39237605  0.78893710     0.36700
C1383       C  0.35658016  0.33673027  0.66689005    -0.27600
C1384       C  0.33587801  0.35721668  0.63826327     0.02000
C1385       C  0.29594053  0.35517234  0.63902850     0.30100
C1386       C  0.27730980  0.33342529  0.66876276    -0.19400
C1387       C  0.29800444  0.31394775  0.69804817    -0.28800
C1388       C  0.33796133  0.31506912  0.69662471     0.44200
C1389       C  0.35682294  0.38080020  0.60829704     0.05300
O1390       O  0.27516887  0.37271847  0.60977847    -0.57300
H1391       H  0.24657628  0.33177608  0.66886336     0.18300
O1392       O  0.35889294  0.29298322  0.72241166    -0.64000
H1393       H  0.38738680  0.33759010  0.66623044     0.16700
C1394       C  0.34992515  0.42087539  0.60404927     0.29000
C1395       C  0.37380781  0.44357417  0.57969722    -0.24900
C1396       C  0.40555402  0.42708741  0.56057213    -0.24200
C1397       C  0.41154600  0.38673977  0.56360410     0.40400
C1398       C  0.38694846  0.36387974  0.58695449    -0.26600
O1399       O  0.32158387  0.43861235  0.62557450    -0.58500
H1400       H  0.36901906  0.47461354  0.57812640     0.16100
O1401       O  0.44173795  0.36948489  0.54449954    -0.59900
H1402       H  0.39240383  0.33302758  0.58980892     0.14500
H1403       H  0.37383337  0.31167505  0.73790054     0.46400
H1404       H  0.33283519  0.44409955  0.65162897     0.41800
H1405       H  0.46120582  0.36557184  0.56508518     0.45200
H1406       H  0.25944495  0.39266155  0.62323903     0.36700
loop_ 
_geom_bond_atom_site_label_1 
_geom_bond_atom_site_label_2 
_geom_bond_distance 
_geom_bond_site_symmetry_2 
_ccdc_geom_bond_type 
O1            C9   1.257       .  A
O1          Co21   1.970       .  S
O2           C10   1.265       .  A
O2          Co22   1.946       .  S
O3           C11   1.293       .  A
O3          Co23   2.094       .  S
O4           C12   1.269       .  A
O4          Co24   1.992       .  S
O5           C11   1.266       .  A
O5          Co22   1.890       .  S
O6           C12   1.265       .  A
O6          Co21   1.962       .  S
O7           C10   1.283       .  A
O7         Co727   2.047       .  S
O8            C9   1.262       .  A
O8         Co726   1.999   1_554  S
C9          C693   1.472       .  S
C10         C621   1.482       .  S
C11         C660   1.476       .  S
C12         C636   1.468       .  S
O13          C26   1.271       .  A
O13         Co21   2.014       .  S
O14          C27   1.288       .  A
O14         Co22   2.085       .  S
O15          C28   1.264       .  A
O15        Co726   1.945   1_554  S
O16          C29   1.250       .  A
O16        Co727   1.949       .  S
O17          C29   1.261       .  A
O17         Co22   2.006       .  S
O18          C28   1.281       .  A
O18         Co21   2.033       .  S
O19          C26   1.262       .  A
O19         Co24   1.964       .  S
O20          C27   1.264       .  A
O20         Co23   1.887       .  S
Co21         O25   2.009       .  S
Co22        O728   1.993       .  S
Co23        O711   1.998       .  S
Co23        O718   1.945       .  S
Co23        O728   1.978       .  S
Co24        O710   2.048   1_554  S
Co24        O719   1.950   1_554  S
Co24         O25   1.992       .  S
O25        Co725   1.992   1_554  S
O25        Co726   1.978   1_554  S
C26         C597   1.471       .  S
C27         C525   1.468       .  S
C28         C540   1.469       .  S
C29         C564   1.465       .  S
O30          C38   1.264       .  A
O30         Co50   2.020   1_565  S
O31          C39   1.278       .  A
O31         Co51   2.024       .  S
O32          C40   1.257       .  A
O32        Co755   1.951       .  S
O33          C41   1.270       .  A
O33         Co53   1.918       .  S
O34          C40   1.277       .  A
O34         Co51   2.052   1_565  S
O35          C41   1.292       .  A
O35         Co50   2.099       .  S
O36          C39   1.268       .  A
O36        Co756   1.971       .  S
O37          C38   1.252       .  A
O37         Co52   1.966   1_554  S
C38         C429   1.480       .  S
C39         C324   1.485       .  S
C40         C444   1.499       .  S
C41         C348   1.485       .  S
O42          C55   1.267       .  A
O42         Co50   1.907       .  S
O43          C56   1.254       .  A
O43         Co51   1.950   1_565  S
O44          C57   1.282       .  A
O44         Co52   2.043   1_554  S
O45          C58   1.268       .  A
O45        Co756   2.039       .  S
O46          C58   1.252       .  A
O46         Co51   1.961       .  S
O47          C57   1.267       .  A
O47         Co50   1.972   1_565  S
O48          C55   1.297       .  A
O48         Co53   2.105       .  S
O49          C56   1.274       .  A
O49        Co755   2.041       .  S
Co50         O54   2.015   1_544  S
Co51        O757   2.022   1_545  S
Co52        O735   1.951       .  S
Co52        O752   2.042       .  S
Co52         O54   2.030       .  S
Co53        O739   1.972   1_554  S
Co53        O748   2.040   1_554  S
Co53         O54   2.033   1_544  S
O54        Co754   2.022   1_565  S
C55         C372   1.495       .  S
C56         C468   1.485       .  S
C57         C501   1.501       .  S
C58         C396   1.495       .  S
O59          C67   1.252       .  A
O59         Co79   1.970       .  S
O60          C68   1.270       .  A
O60        Co783   1.981       .  S
O61          C69   1.295       .  A
O61         Co81   2.102   1_455  S
O62          C70   1.279       .  A
O62         Co82   2.055       .  S
O63          C69   1.269       .  A
O63         Co80   1.905       .  S
O64          C70   1.258       .  A
O64        Co782   1.952       .  S
O65          C68   1.279       .  A
O65         Co82   2.034   1_455  S
O66          C67   1.260       .  A
O66         Co81   2.012       .  S
C67         C309   1.469       .  S
C68         C156   1.501       .  S
C69         C141   1.486       .  S
C70         C276   1.496       .  S
O71          C84   1.274       .  A
O71        Co782   2.039       .  S
O72          C85   1.302       .  A
O72         Co80   2.133       .  S
O73          C86   1.267       .  A
O73         Co81   1.974       .  S
O74          C87   1.253       .  A
O74         Co82   1.970   1_455  S
O75          C87   1.266       .  A
O75        Co783   2.023       .  S
O76          C86   1.281       .  A
O76         Co79   2.043       .  S
O77          C84   1.255       .  A
O77         Co82   1.952       .  S
O78          C85   1.261       .  A
O78         Co81   1.883   1_455  S
Co79        O767   1.952   1_554  S
Co79        O774   2.040   1_554  S
Co79         O83   2.038   1_554  S
Co80        O763   1.979   1_554  S
Co80        O778   2.024   1_554  S
Co80         O83   2.026   1_454  S
Co81         O83   2.007   1_554  S
Co82        O786   2.026       .  S
O83        Co785   2.026       .  S
C84         C252   1.485       .  S
C85         C204   1.497       .  S
C86         C228   1.501       .  S
C87         C180   1.478       .  S
C88          H89   1.111       .  S
C88          C94   1.538       .  S
C88          C93   1.534       .  S
C88          C92   1.532       .  S
C90          H91   1.111       .  S
C90          C96   1.548       .  S
C90          C95   1.534       .  S
C90          C97   1.545       .  S
C92          C95   1.373       .  D
C92         C669   1.475       .  S
C93          C96   1.381       .  D
C93         C405   1.496       .  S
C94          C97   1.383       .  D
C94         C189   1.503       .  S
C95         C684   1.475       .  S
C96         C381   1.502       .  S
C97         C213   1.496       .  S
C98          H99   1.111       .  S
C98         C104   1.543       .  S
C98         C103   1.539       .  S
C98         C102   1.535       .  S
C100        H101   1.110       .  S
C100        C106   1.540       .  S
C100        C105   1.538       .  S
C100        C107   1.546       .  S
C102        C105   1.374       .  D
C102        C645   1.472       .  S
C103        C106   1.377       .  D
C103        C357   1.512       .  S
C104        C107   1.387       .  D
C104        C237   1.497       .  S
C105        C612   1.484       .  S
C106        C333   1.486       .  S
C107        C261   1.513       .  S
C108        H109   1.111       .  S
C108        C114   1.550       .  S
C108        C113   1.551       .  S
C108        C112   1.530       .  S
C110        H111   1.106       .  S
C110        C116   1.541       .  S
C110        C115   1.538       .  S
C110        C117   1.546       .  S
C112        C115   1.367       .  D
C112        C549   1.479       .  S
C113        C116   1.383       .  D
C113        C492   1.506       .  S
C114        C117   1.389       .  D
C114        C132   1.496       .  S
C115        C516   1.469       .  S
C116        C477   1.508       .  S
C117        C165   1.525       .  S
C118        H119   1.111       .  S
C118        C124   1.550       .  S
C118        C123   1.555       .  S
C118        C122   1.518       .  S
C120        H121   1.095       .  S
C120        C126   1.533       .  S
C120        C125   1.550       .  S
C120        C127   1.548       .  S
C122        C125   1.370       .  D
C122        C573   1.471       .  S
C123        C126   1.380       .  D
C123        C453   1.501       .  S
C124        C127   1.389       .  D
C124        C285   1.516       .  S
C125        C588   1.481       .  S
C126        C420   1.510       .  S
C127        C300   1.521       .  S
C128        C129   1.400       .  A
C128        C133   1.399       .  A
C128        H138   1.084       .  S
C129        C134   1.488       .  S
C129        C130   1.410       .  A
C130        C131   1.409       .  A
C130        O135   1.372       .  S
C131        C132   1.406       .  A
C131        H136   1.083       .  S
C132        C133   1.413       .  A
C133        O137   1.371       .  S
C134        C139   1.410       .  A
C134        C143   1.403       .  A
O135        H151   0.992       .  S
O137        H148   0.993       .  S
C139        C140   1.406       .  A
C139        O144   1.371       .  S
C140        C141   1.407       .  A
C140        H145   1.084       .  S
C141        C142   1.411       .  A
C142        C143   1.401       .  A
C142        O146   1.372       .  S
C143        H147   1.084       .  S
O144        H149   0.992       .  S
O146        H150   0.991       .  S
C152        C153   1.403       .  A
C152        C157   1.408       .  A
C152        H162   1.084       .  S
C153        C158   1.493       .  S
C153        C154   1.407       .  A
C154        C155   1.406       .  A
C154        O159   1.372       .  S
C155        C156   1.409       .  A
C155        H160   1.083       .  S
C156        C157   1.418       .  A
C157        O161   1.372       .  S
C158        C163   1.402       .  A
C158        C167   1.405       .  A
O159        H175   0.992       .  S
O161        H172   0.992       .  S
C163        C164   1.400       .  A
C163        O168   1.373       .  S
C164        C165   1.414       .  A
C164        H169   1.076       .  S
C165        C166   1.419       .  A
C166        C167   1.416       .  A
C166        O170   1.373       .  S
C167        H171   1.083       .  S
O168        H173   0.992       .  S
O170        H174   0.992       .  S
C176        C177   1.403       .  A
C176        C181   1.403       .  A
C176        H186   1.084       .  S
C177        C182   1.488       .  S
C177        C178   1.411       .  A
C178        C179   1.405       .  A
C178        O183   1.373       .  S
C179        C180   1.402       .  A
C179        H184   1.084       .  S
C180        C181   1.411       .  A
C181        O185   1.372       .  S
C182        C187   1.404       .  A
C182        C191   1.408       .  A
O183        H199   0.991       .  S
O185        H196   0.992       .  S
C187        C188   1.395       .  A
C187        O192   1.372       .  S
C188        C189   1.409       .  A
C188        H193   1.079       .  S
C189        C190   1.410       .  A
C190        C191   1.409       .  A
C190        O194   1.371       .  S
C191        H195   1.083       .  S
O192        H197   0.991       .  S
O194        H198   0.991       .  S
C200        C201   1.400       .  A
C200        C205   1.399       .  A
C200        H210   1.084       .  S
C201        C206   1.491       .  S
C201        C202   1.411       .  A
C202        C203   1.409       .  A
C202        O207   1.371       .  S
C203        C204   1.408       .  A
C203        H208   1.083       .  S
C204        C205   1.418       .  A
C205        O209   1.372       .  S
C206        C211   1.409       .  A
C206        C215   1.406       .  A
O207        H223   0.992       .  S
O209        H220   0.992       .  S
C211        C212   1.399       .  A
C211        O216   1.372       .  S
C212        C213   1.406       .  A
C212        H217   1.082       .  S
C213        C214   1.409       .  A
C214        C215   1.408       .  A
C214        O218   1.371       .  S
C215        H219   1.083       .  S
O216        H221   0.992       .  S
O218        H222   0.992       .  S
C224        C225   1.406       .  A
C224        C229   1.405       .  A
C224        H234   1.084       .  S
C225        C230   1.499       .  S
C225        C226   1.410       .  A
C226        C227   1.407       .  A
C226        O231   1.372       .  S
C227        C228   1.411       .  A
C227        H232   1.083       .  S
C228        C229   1.415       .  A
C229        O233   1.371       .  S
C230        C235   1.413       .  A
C230        C239   1.406       .  A
O231        H247   0.992       .  S
O233        H244   0.992       .  S
C235        C236   1.404       .  A
C235        O240   1.371       .  S
C236        C237   1.406       .  A
C236        H241   1.083       .  S
C237        C238   1.410       .  A
C238        C239   1.405       .  A
C238        O242   1.371       .  S
C239        H243   1.083       .  S
O240        H245   0.991       .  S
O242        H246   0.991       .  S
C248        C249   1.409       .  A
C248        C253   1.405       .  A
C248        H258   1.083       .  S
C249        C254   1.491       .  S
C249        C250   1.406       .  A
C250        C251   1.400       .  A
C250        O255   1.371       .  S
C251        C252   1.409       .  A
C251        H256   1.084       .  S
C252        C253   1.409       .  A
C253        O257   1.372       .  S
C254        C259   1.401       .  A
C254        C263   1.409       .  A
O255        H271   0.992       .  S
O257        H268   0.992       .  S
C259        C260   1.394       .  A
C259        O264   1.372       .  S
C260        C261   1.413       .  A
C260        H265   1.076       .  S
C261        C262   1.414       .  A
C262        C263   1.409       .  A
C262        O266   1.371       .  S
C263        H267   1.083       .  S
O264        H269   0.992       .  S
O266        H270   0.991       .  S
C272        C273   1.411       .  A
C272        C277   1.414       .  A
C272        H282   1.083       .  S
C273        C278   1.498       .  S
C273        C274   1.406       .  A
C274        C275   1.403       .  A
C274        O279   1.373       .  S
C275        C276   1.409       .  A
C275        H280   1.084       .  S
C276        C277   1.410       .  A
C277        O281   1.371       .  S
C278        C283   1.413       .  A
C278        C287   1.399       .  A
O279        H295   0.992       .  S
O281        H292   0.992       .  S
C283        C284   1.412       .  A
C283        O288   1.372       .  S
C284        C285   1.405       .  A
C284        H289   1.083       .  S
C285        C286   1.421       .  A
C286        C287   1.406       .  A
C286        O290   1.373       .  S
C287        H291   1.084       .  S
O288        H293   0.992       .  S
O290        H294   0.992       .  S
C296        C297   1.395       .  A
C296        C301   1.403       .  A
C296        H306   1.084       .  S
C297        C302   1.475       .  S
C297        C298   1.400       .  A
C298        C299   1.401       .  A
C298        O303   1.371       .  S
C299        C300   1.415       .  A
C299        H304   1.082       .  S
C300        C301   1.425       .  A
C301        O305   1.373       .  S
C302        C307   1.409       .  A
C302        C311   1.400       .  A
O303        H319   0.992       .  S
O305        H316   0.992       .  S
C307        C308   1.400       .  A
C307        O312   1.372       .  S
C308        C309   1.400       .  A
C308        H313   1.084       .  S
C309        C310   1.410       .  A
C310        C311   1.400       .  A
C310        O314   1.372       .  S
C311        H315   1.084       .  S
O312        H317   0.992       .  S
O314        H318   0.992       .  S
C320        C321   1.402       .  A
C320        C325   1.400       .  A
C320        H330   1.084       .  S
C321        C326   1.485       .  S
C321        C322   1.409       .  A
C322        C323   1.404       .  A
C322        O327   1.372       .  S
C323        C324   1.407       .  A
C323        H328   1.084       .  S
C324        C325   1.411       .  A
C325        O329   1.370       .  S
C326        C331   1.409       .  A
C326        C335   1.403       .  A
O327        H343   0.992       .  S
O329        H340   0.990       .  S
C331        C332   1.402       .  A
C331        O336   1.371       .  S
C332        C333   1.403       .  A
C332        H337   1.084       .  S
C333        C334   1.410       .  A
C334        C335   1.400       .  A
C334        O338   1.373       .  S
C335        H339   1.084       .  S
O336        H341   0.992       .  S
O338        H342   0.992       .  S
C344        C345   1.409       .  A
C344        C349   1.403       .  A
C344        H354   1.083       .  S
C345        C350   1.501       .  S
C345        C346   1.413       .  A
C346        C347   1.409       .  A
C346        O351   1.371       .  S
C347        C348   1.406       .  A
C347        H352   1.084       .  S
C348        C349   1.406       .  A
C349        O353   1.372       .  S
C350        C355   1.408       .  A
C350        C359   1.411       .  A
O351        H367   0.992       .  S
O353        H364   0.992       .  S
C355        C356   1.399       .  A
C355        O360   1.373       .  S
C356        C357   1.408       .  A
C356        H361   1.078       .  S
C357        C358   1.413       .  A
C358        C359   1.413       .  A
C358        O362   1.371       .  S
C359        H363   1.083       .  S
O360        H365   0.993       .  S
O362        H366   0.992       .  S
C368        C369   1.406       .  A
C368        C373   1.405       .  A
C368        H378   1.083       .  S
C369        C374   1.494       .  S
C369        C370   1.409       .  A
C370        C371   1.405       .  A
C370        O375   1.372       .  S
C371        C372   1.410       .  A
C371        H376   1.083       .  S
C372        C373   1.413       .  A
C373        O377   1.372       .  S
C374        C379   1.406       .  A
C374        C383   1.409       .  A
O375        H391   0.992       .  S
O377        H388   0.992       .  S
C379        C380   1.398       .  A
C379        O384   1.373       .  S
C380        C381   1.406       .  A
C380        H385   1.078       .  S
C381        C382   1.410       .  A
C382        C383   1.412       .  A
C382        O386   1.372       .  S
C383        H387   1.083       .  S
O384        H389   0.991       .  S
O386        H390   0.991       .  S
C392        C393   1.401       .  A
C392        C397   1.396       .  A
C392        H402   1.084       .  S
C393        C398   1.499       .  S
C393        C394   1.416       .  A
C394        C395   1.414       .  A
C394        O399   1.373       .  S
C395        C396   1.406       .  A
C395        H400   1.083       .  S
C396        C397   1.416       .  A
C397        O401   1.372       .  S
C398        C403   1.412       .  A
C398        C407   1.408       .  A
O399        H415   0.992       .  S
O401        H412   0.992       .  S
C403        C404   1.405       .  A
C403        O408   1.371       .  S
C404        C405   1.408       .  A
C404        H409   1.082       .  S
C405        C406   1.407       .  A
C406        C407   1.403       .  A
C406        O410   1.373       .  S
C407        H411   1.083       .  S
O408        H413   0.992       .  S
O410        H414   0.992       .  S
C416        C417   1.396       .  A
C416        C421   1.399       .  A
C416        H426   1.084       .  S
C417        C422   1.481       .  S
C417        C418   1.405       .  A
C418        C419   1.406       .  A
C418        O423   1.371       .  S
C419        C420   1.411       .  A
C419        H424   1.083       .  S
C420        C421   1.418       .  A
C421        O425   1.371       .  S
C422        C427   1.404       .  A
C422        C431   1.406       .  A
O423        H439   0.991       .  S
O425        H436   0.991       .  S
C427        C428   1.399       .  A
C427        O432   1.372       .  S
C428        C429   1.408       .  A
C428        H433   1.084       .  S
C429        C430   1.407       .  A
C430        C431   1.404       .  A
C430        O434   1.372       .  S
C431        H435   1.084       .  S
O432        H437   0.992       .  S
O434        H438   0.992       .  S
C440        C441   1.413       .  A
C440        C445   1.412       .  A
C440        H450   1.083       .  S
C441        C446   1.505       .  S
C441        C442   1.410       .  A
C442        C443   1.398       .  A
C442        O447   1.372       .  S
C443        C444   1.410       .  A
C443        H448   1.083       .  S
C444        C445   1.411       .  A
C445        O449   1.372       .  S
C446        C451   1.411       .  A
C446        C455   1.415       .  A
O447        H463   0.992       .  S
O449        H460   0.991       .  S
C451        C452   1.398       .  A
C451        O456   1.371       .  S
C452        C453   1.406       .  A
C452        H457   1.079       .  S
C453        C454   1.403       .  A
C454        C455   1.409       .  A
C454        O458   1.371       .  S
C455        H459   1.083       .  S
O456        H461   0.992       .  S
O458        H462   0.992       .  S
C464        C465   1.402       .  A
C464        C469   1.401       .  A
C464        H474   1.084       .  S
C465        C470   1.493       .  S
C465        C466   1.414       .  A
C466        C467   1.407       .  A
C466        O471   1.373       .  S
C467        C468   1.404       .  A
C467        H472   1.084       .  S
C468        C469   1.413       .  A
C469        O473   1.372       .  S
C470        C475   1.404       .  A
C470        C479   1.411       .  A
O471        H487   0.993       .  S
O473        H484   0.992       .  S
C475        C476   1.394       .  A
C475        O480   1.372       .  S
C476        C477   1.409       .  A
C476        H481   1.075       .  S
C477        C478   1.410       .  A
C478        C479   1.412       .  A
C478        O482   1.372       .  S
C479        H483   1.083       .  S
O480        H485   0.990       .  S
O482        H486   0.991       .  S
C488        C489   1.401       .  A
C488        C493   1.404       .  A
C488        H498   1.084       .  S
C489        C494   1.496       .  S
C489        C490   1.411       .  A
C490        C491   1.410       .  A
C490        O495   1.372       .  S
C491        C492   1.407       .  A
C491        H496   1.083       .  S
C492        C493   1.417       .  A
C493        O497   1.371       .  S
C494        C499   1.408       .  A
C494        C503   1.406       .  A
O495        H511   0.992       .  S
O497        H508   0.992       .  S
C499        C500   1.406       .  A
C499        O504   1.371       .  S
C500        C501   1.412       .  A
C500        H505   1.083       .  S
C501        C502   1.414       .  A
C502        C503   1.406       .  A
C502        O506   1.371       .  S
C503        H507   1.084       .  S
O504        H509   0.992       .  S
O506        H510   0.992       .  S
C512        C513   1.403       .  A
C512        C517   1.397       .  A
C512        H522   1.084       .  S
C513        C518   1.470       .  S
C513        C514   1.406       .  A
C514        C515   1.392       .  A
C514        O519   1.372       .  S
C515        C516   1.400       .  A
C515        H520   1.080       .  S
C516        C517   1.402       .  A
C517        O521   1.375       .  S
C518        C523   1.408       .  A
C518        C527   1.400       .  A
O519        H535   0.992       .  S
O521        H532   0.992       .  S
C523        C524   1.393       .  A
C523        O528   1.373       .  S
C524        C525   1.401       .  A
C524        H529   1.084       .  S
C525        C526   1.413       .  A
C526        C527   1.394       .  A
C526        O530   1.372       .  S
C527        H531   1.084       .  S
O528        H533   0.992       .  S
O530        H534   0.992       .  S
C536        C537   1.404       .  A
C536        C541   1.399       .  A
C536        H546   1.084       .  S
C537        C542   1.468       .  S
C537        C538   1.403       .  A
C538        C539   1.390       .  A
C538        O543   1.372       .  S
C539        C540   1.406       .  A
C539        H544   1.084       .  S
C540        C541   1.407       .  A
C541        O545   1.372       .  S
C542        C547   1.404       .  A
C542        C551   1.399       .  A
O543        H559   0.992       .  S
O545        H556   0.992       .  S
C547        C548   1.396       .  A
C547        O552   1.372       .  S
C548        C549   1.404       .  A
C548        H553   1.082       .  S
C549        C550   1.406       .  A
C550        C551   1.393       .  A
C550        O554   1.366       .  S
C551        H555   1.084       .  S
O552        H557   0.992       .  S
O554        H558   0.991       .  S
C560        C561   1.405       .  A
C560        C565   1.395       .  A
C560        H570   1.083       .  S
C561        C566   1.466       .  S
C561        C562   1.402       .  A
C562        C563   1.389       .  A
C562        O567   1.372       .  S
C563        C564   1.407       .  A
C563        H568   1.084       .  S
C564        C565   1.405       .  A
C565        O569   1.371       .  S
C566        C571   1.404       .  A
C566        C575   1.402       .  A
O567        H583   0.992       .  S
O569        H580   0.992       .  S
C571        C572   1.390       .  A
C571        O576   1.373       .  S
C572        C573   1.401       .  A
C572        H577   1.080       .  S
C573        C574   1.404       .  A
C574        C575   1.393       .  A
C574        O578   1.368       .  S
C575        H579   1.084       .  S
O576        H581   0.992       .  S
O578        H582   0.991       .  S
C584        C585   1.400       .  A
C584        C589   1.399       .  A
C584        H594   1.084       .  S
C585        C590   1.473       .  S
C585        C586   1.407       .  A
C586        C587   1.397       .  A
C586        O591   1.372       .  S
C587        C588   1.396       .  A
C587        H592   1.079       .  S
C588        C589   1.411       .  A
C589        O593   1.372       .  S
C590        C595   1.406       .  A
C590        C599   1.402       .  A
O591        H607   0.992       .  S
O593        H604   0.992       .  S
C595        C596   1.400       .  A
C595        O600   1.373       .  S
C596        C597   1.404       .  A
C596        H601   1.084       .  S
C597        C598   1.409       .  A
C598        C599   1.396       .  A
C598        O602   1.372       .  S
C599        H603   1.084       .  S
O600        H605   0.992       .  S
O602        H606   0.992       .  S
C608        C609   1.401       .  A
C608        C613   1.396       .  A
C608        H618   1.084       .  S
C609        C614   1.480       .  S
C609        C610   1.408       .  A
C610        C611   1.402       .  A
C610        O615   1.371       .  S
C611        C612   1.406       .  A
C611        H616   1.083       .  S
C612        C613   1.407       .  A
C613        O617   1.369       .  S
C614        C619   1.405       .  A
C614        C623   1.405       .  A
O615        H631   0.992       .  S
O617        H628   0.992       .  S
C619        C620   1.394       .  A
C619        O624   1.373       .  S
C620        C621   1.407       .  A
C620        H625   1.084       .  S
C621        C622   1.411       .  A
C622        C623   1.403       .  A
C622        O626   1.371       .  S
C623        H627   1.084       .  S
O624        H629   0.992       .  S
O626        H630   0.992       .  S
C632        C633   1.401       .  A
C632        C637   1.391       .  A
C632        H642   1.083       .  S
C633        C638   1.471       .  S
C633        C634   1.408       .  A
C634        C635   1.392       .  A
C634        O639   1.372       .  S
C635        C636   1.403       .  A
C635        H640   1.084       .  S
C636        C637   1.411       .  A
C637        O641   1.372       .  S
C638        C643   1.404       .  A
C638        C647   1.405       .  A
O639        H655   0.992       .  S
O641        H652   0.992       .  S
C643        C644   1.389       .  A
C643        O648   1.372       .  S
C644        C645   1.403       .  A
C644        H649   1.080       .  S
C645        C646   1.404       .  A
C646        C647   1.395       .  A
C646        O650   1.372       .  S
C647        H651   1.083       .  S
O648        H653   0.991       .  S
O650        H654   0.992       .  S
C656        C657   1.401       .  A
C656        C661   1.396       .  A
C656        H666   1.084       .  S
C657        C662   1.471       .  S
C657        C658   1.404       .  A
C658        C659   1.395       .  A
C658        O663   1.372       .  S
C659        C660   1.406       .  A
C659        H664   1.083       .  S
C660        C661   1.413       .  A
C661        O665   1.372       .  S
C662        C667   1.405       .  A
C662        C671   1.403       .  A
O663        H679   0.992       .  S
O665        H676   0.992       .  S
C667        C668   1.393       .  A
C667        O672   1.372       .  S
C668        C669   1.402       .  A
C668        H673   1.083       .  S
C669        C670   1.408       .  A
C670        C671   1.397       .  A
C670        O674   1.371       .  S
C671        H675   1.084       .  S
O672        H677   0.992       .  S
O674        H678   0.992       .  S
C680        C681   1.404       .  A
C680        C685   1.395       .  A
C680        H690   1.084       .  S
C681        C686   1.476       .  S
C681        C682   1.407       .  A
C682        C683   1.398       .  A
C682        O687   1.373       .  S
C683        C684   1.403       .  A
C683        H688   1.082       .  S
C684        C685   1.405       .  A
C685        O689   1.373       .  S
C686        C691   1.409       .  A
C686        C695   1.402       .  A
O687        H703   0.992       .  S
O689        H700   0.992       .  S
C691        C692   1.397       .  A
C691        O696   1.372       .  S
C692        C693   1.404       .  A
C692        H697   1.084       .  S
C693        C694   1.409       .  A
C694        C695   1.395       .  A
C694        O698   1.372       .  S
C695        H699   1.084       .  S
O696        H701   0.992       .  S
O698        H702   0.993       .  S
O704        C712   1.257       .  A
O704       Co724   1.970       .  S
O705        C713   1.266       .  A
O705       Co725   1.947       .  S
O706        C714   1.293       .  A
O706       Co726   2.094       .  S
O707        C715   1.269       .  A
O707       Co727   1.993       .  S
O708        C714   1.266       .  A
O708       Co725   1.889       .  S
O709        C715   1.265       .  A
O709       Co724   1.962       .  S
O710        C713   1.284       .  A
O711        C712   1.261       .  A
C712       C1396   1.471       .  S
C713       C1324   1.483       .  S
C714       C1363   1.476       .  S
C715       C1339   1.468       .  S
O716        C729   1.271       .  A
O716       Co724   2.014       .  S
O717        C730   1.288       .  A
O717       Co725   2.086       .  S
O718        C731   1.264       .  A
O719        C732   1.250       .  A
O720        C732   1.261       .  A
O720       Co725   2.005       .  S
O721        C731   1.281       .  A
O721       Co724   2.034       .  S
O722        C729   1.261       .  A
O722       Co727   1.962       .  S
O723        C730   1.265       .  A
O723       Co726   1.888       .  S
Co724       O728   2.009       .  S
Co727       O728   1.991       .  S
C729       C1300   1.471       .  S
C730       C1228   1.469       .  S
C731       C1243   1.470       .  S
C732       C1267   1.465       .  S
O733        C741   1.264       .  A
O733       Co753   2.020   1_565  S
O734        C742   1.278       .  A
O734       Co754   2.022       .  S
O735        C743   1.257       .  A
O736        C744   1.270       .  A
O736       Co756   1.917       .  S
O737        C743   1.278       .  A
O737       Co754   2.054   1_565  S
O738        C744   1.292       .  A
O738       Co753   2.098       .  S
O739        C742   1.268       .  A
O740        C741   1.252       .  A
O740       Co755   1.967       .  S
C741       C1132   1.480       .  S
C742       C1027   1.485       .  S
C743       C1147   1.500       .  S
C744       C1051   1.484       .  S
O745        C758   1.267       .  A
O745       Co753   1.907       .  S
O746        C759   1.253       .  A
O746       Co754   1.948   1_565  S
O747        C760   1.282       .  A
O747       Co755   2.043       .  S
O748        C761   1.268       .  A
O749        C761   1.251       .  A
O749       Co754   1.961       .  S
O750        C760   1.267       .  A
O750       Co753   1.971   1_565  S
O751        C758   1.296       .  A
O751       Co756   2.104       .  S
O752        C759   1.274       .  A
Co753       O757   2.015   1_545  S
Co755       O757   2.029       .  S
Co756       O757   2.033   1_545  S
C758       C1075   1.495       .  S
C759       C1171   1.485       .  S
C760       C1204   1.500       .  S
C761       C1099   1.495       .  S
O762        C770   1.252       .  A
O762       Co782   1.969       .  S
O763        C771   1.270       .  A
O764        C772   1.295       .  A
O764       Co784   2.102   1_455  S
O765        C773   1.279       .  A
O765       Co785   2.056       .  S
O766        C772   1.269       .  A
O766       Co783   1.906       .  S
O767        C773   1.258       .  A
O768        C771   1.279       .  A
O768       Co785   2.033   1_455  S
O769        C770   1.260       .  A
O769       Co784   2.011       .  S
C770       C1012   1.467       .  S
C771        C859   1.500       .  S
C772        C844   1.487       .  S
C773        C979   1.498       .  S
O774        C787   1.274       .  A
O775        C788   1.302       .  A
O775       Co783   2.134       .  S
O776        C789   1.267       .  A
O776       Co784   1.973       .  S
O777        C790   1.253       .  A
O777       Co785   1.971   1_455  S
O778        C790   1.265       .  A
O779        C789   1.281       .  A
O779       Co782   2.043       .  S
O780        C787   1.254       .  A
O780       Co785   1.950       .  S
O781        C788   1.261       .  A
O781       Co784   1.882   1_455  S
Co782       O786   2.037       .  S
Co783       O786   2.026   1_455  S
Co784       O786   2.006       .  S
C787        C955   1.485       .  S
C788        C907   1.496       .  S
C789        C931   1.501       .  S
C790        C883   1.479       .  S
C791        H792   1.111       .  S
C791        C797   1.538       .  S
C791        C796   1.534       .  S
C791        C795   1.532       .  S
C793        H794   1.111       .  S
C793        C799   1.548       .  S
C793        C798   1.534       .  S
C793        C800   1.545       .  S
C795        C798   1.373       .  D
C795       C1372   1.475       .  S
C796        C799   1.380       .  D
C796       C1108   1.495       .  S
C797        C800   1.383       .  D
C797        C892   1.503       .  S
C798       C1387   1.475       .  S
C799       C1084   1.502       .  S
C800        C916   1.496       .  S
C801        H802   1.111       .  S
C801        C807   1.542       .  S
C801        C806   1.539       .  S
C801        C805   1.536       .  S
C803        H804   1.110       .  S
C803        C809   1.539       .  S
C803        C808   1.538       .  S
C803        C810   1.546       .  S
C805        C808   1.375       .  D
C805       C1348   1.473       .  S
C806        C809   1.377       .  D
C806       C1060   1.512       .  S
C807        C810   1.387       .  D
C807        C940   1.497       .  S
C808       C1315   1.486       .  S
C809       C1036   1.486       .  S
C810        C964   1.512       .  S
C811        H812   1.111       .  S
C811        C817   1.550       .  S
C811        C816   1.552       .  S
C811        C815   1.531       .  S
C813        H814   1.106       .  S
C813        C819   1.541       .  S
C813        C818   1.538       .  S
C813        C820   1.545       .  S
C815        C818   1.367       .  D
C815       C1252   1.480       .  S
C816        C819   1.383       .  D
C816       C1195   1.506       .  S
C817        C820   1.389       .  D
C817        C835   1.497       .  S
C818       C1219   1.470       .  S
C819       C1180   1.508       .  S
C820        C868   1.524       .  S
C821        H822   1.111       .  S
C821        C827   1.550       .  S
C821        C826   1.556       .  S
C821        C825   1.519       .  S
C823        H824   1.095       .  S
C823        C829   1.533       .  S
C823        C828   1.549       .  S
C823        C830   1.547       .  S
C825        C828   1.370       .  D
C825       C1276   1.471       .  S
C826        C829   1.380       .  D
C826       C1156   1.502       .  S
C827        C830   1.389       .  D
C827        C988   1.516       .  S
C828       C1291   1.480       .  S
C829       C1123   1.510       .  S
C830       C1003   1.519       .  S
C831        C832   1.400       .  A
C831        C836   1.399       .  A
C831        H841   1.084       .  S
C832        C837   1.489       .  S
C832        C833   1.410       .  A
C833        C834   1.409       .  A
C833        O838   1.372       .  S
C834        C835   1.406       .  A
C834        H839   1.083       .  S
C835        C836   1.413       .  A
C836        O840   1.371       .  S
C837        C842   1.410       .  A
C837        C846   1.404       .  A
O838        H854   0.992       .  S
O840        H851   0.993       .  S
C842        C843   1.406       .  A
C842        O847   1.371       .  S
C843        C844   1.407       .  A
C843        H848   1.084       .  S
C844        C845   1.411       .  A
C845        C846   1.402       .  A
C845        O849   1.372       .  S
C846        H850   1.084       .  S
O847        H852   0.992       .  S
O849        H853   0.991       .  S
C855        C856   1.403       .  A
C855        C860   1.408       .  A
C855        H865   1.084       .  S
C856        C861   1.492       .  S
C856        C857   1.407       .  A
C857        C858   1.406       .  A
C857        O862   1.372       .  S
C858        C859   1.409       .  A
C858        H863   1.083       .  S
C859        C860   1.417       .  A
C860        O864   1.372       .  S
C861        C866   1.402       .  A
C861        C870   1.405       .  A
O862        H878   0.992       .  S
O864        H875   0.992       .  S
C866        C867   1.400       .  A
C866        O871   1.373       .  S
C867        C868   1.413       .  A
C867        H872   1.076       .  S
C868        C869   1.418       .  A
C869        C870   1.416       .  A
C869        O873   1.373       .  S
C870        H874   1.083       .  S
O871        H876   0.992       .  S
O873        H877   0.993       .  S
C879        C880   1.403       .  A
C879        C884   1.403       .  A
C879        H889   1.084       .  S
C880        C885   1.488       .  S
C880        C881   1.411       .  A
C881        C882   1.405       .  A
C881        O886   1.372       .  S
C882        C883   1.402       .  A
C882        H887   1.084       .  S
C883        C884   1.411       .  A
C884        O888   1.372       .  S
C885        C890   1.404       .  A
C885        C894   1.408       .  A
O886        H902   0.991       .  S
O888        H899   0.992       .  S
C890        C891   1.395       .  A
C890        O895   1.372       .  S
C891        C892   1.409       .  A
C891        H896   1.079       .  S
C892        C893   1.411       .  A
C893        C894   1.409       .  A
C893        O897   1.371       .  S
C894        H898   1.083       .  S
O895        H900   0.991       .  S
O897        H901   0.991       .  S
C903        C904   1.400       .  A
C903        C908   1.399       .  A
C903        H913   1.084       .  S
C904        C909   1.491       .  S
C904        C905   1.411       .  A
C905        C906   1.409       .  A
C905        O910   1.371       .  S
C906        C907   1.408       .  A
C906        H911   1.083       .  S
C907        C908   1.418       .  A
C908        O912   1.372       .  S
C909        C914   1.409       .  A
C909        C918   1.406       .  A
O910        H926   0.992       .  S
O912        H923   0.992       .  S
C914        C915   1.399       .  A
C914        O919   1.372       .  S
C915        C916   1.406       .  A
C915        H920   1.082       .  S
C916        C917   1.409       .  A
C917        C918   1.408       .  A
C917        O921   1.371       .  S
C918        H922   1.083       .  S
O919        H924   0.992       .  S
O921        H925   0.992       .  S
C927        C928   1.406       .  A
C927        C932   1.405       .  A
C927        H937   1.084       .  S
C928        C933   1.499       .  S
C928        C929   1.410       .  A
C929        C930   1.407       .  A
C929        O934   1.372       .  S
C930        C931   1.411       .  A
C930        H935   1.083       .  S
C931        C932   1.415       .  A
C932        O936   1.371       .  S
C933        C938   1.413       .  A
C933        C942   1.407       .  A
O934        H950   0.992       .  S
O936        H947   0.992       .  S
C938        C939   1.404       .  A
C938        O943   1.371       .  S
C939        C940   1.406       .  A
C939        H944   1.083       .  S
C940        C941   1.409       .  A
C941        C942   1.406       .  A
C941        O945   1.371       .  S
C942        H946   1.083       .  S
O943        H948   0.991       .  S
O945        H949   0.991       .  S
C951        C952   1.409       .  A
C951        C956   1.405       .  A
C951        H961   1.083       .  S
C952        C957   1.491       .  S
C952        C953   1.406       .  A
C953        C954   1.399       .  A
C953        O958   1.371       .  S
C954        C955   1.409       .  A
C954        H959   1.084       .  S
C955        C956   1.409       .  A
C956        O960   1.372       .  S
C957        C962   1.402       .  A
C957        C966   1.409       .  A
O958        H974   0.992       .  S
O960        H971   0.992       .  S
C962        C963   1.394       .  A
C962        O967   1.372       .  S
C963        C964   1.413       .  A
C963        H968   1.076       .  S
C964        C965   1.414       .  A
C965        C966   1.409       .  A
C965        O969   1.371       .  S
C966        H970   1.083       .  S
O967        H972   0.992       .  S
O969        H973   0.991       .  S
C975        C976   1.411       .  A
C975        C980   1.414       .  A
C975        H985   1.083       .  S
C976        C981   1.498       .  S
C976        C977   1.406       .  A
C977        C978   1.403       .  A
C977        O982   1.373       .  S
C978        C979   1.410       .  A
C978        H983   1.084       .  S
C979        C980   1.410       .  A
C980        O984   1.370       .  S
C981        C986   1.413       .  A
C981        C990   1.400       .  A
O982        H998   0.992       .  S
O984        H995   0.991       .  S
C986        C987   1.413       .  A
C986        O991   1.372       .  S
C987        C988   1.405       .  A
C987        H992   1.083       .  S
C988        C989   1.420       .  A
C989        C990   1.406       .  A
C989        O993   1.372       .  S
C990        H994   1.084       .  S
O991        H996   0.992       .  S
O993        H997   0.992       .  S
C999       C1000   1.395       .  A
C999       C1004   1.402       .  A
C999       H1009   1.084       .  S
C1000      C1005   1.475       .  S
C1000      C1001   1.400       .  A
C1001      C1002   1.401       .  A
C1001      O1006   1.371       .  S
C1002      C1003   1.414       .  A
C1002      H1007   1.082       .  S
C1003      C1004   1.425       .  A
C1004      O1008   1.373       .  S
C1005      C1010   1.410       .  A
C1005      C1014   1.400       .  A
O1006      H1022   0.992       .  S
O1008      H1019   0.992       .  S
C1010      C1011   1.400       .  A
C1010      O1015   1.372       .  S
C1011      C1012   1.400       .  A
C1011      H1016   1.084       .  S
C1012      C1013   1.409       .  A
C1013      C1014   1.400       .  A
C1013      O1017   1.372       .  S
C1014      H1018   1.084       .  S
O1015      H1020   0.992       .  S
O1017      H1021   0.992       .  S
C1023      C1024   1.402       .  A
C1023      C1028   1.400       .  A
C1023      H1033   1.084       .  S
C1024      C1029   1.484       .  S
C1024      C1025   1.409       .  A
C1025      C1026   1.403       .  A
C1025      O1030   1.372       .  S
C1026      C1027   1.407       .  A
C1026      H1031   1.084       .  S
C1027      C1028   1.411       .  A
C1028      O1032   1.370       .  S
C1029      C1034   1.409       .  A
C1029      C1038   1.402       .  A
O1030      H1046   0.992       .  S
O1032      H1043   0.991       .  S
C1034      C1035   1.402       .  A
C1034      O1039   1.371       .  S
C1035      C1036   1.403       .  A
C1035      H1040   1.084       .  S
C1036      C1037   1.410       .  A
C1037      C1038   1.400       .  A
C1037      O1041   1.373       .  S
C1038      H1042   1.084       .  S
O1039      H1044   0.992       .  S
O1041      H1045   0.992       .  S
C1047      C1048   1.409       .  A
C1047      C1052   1.402       .  A
C1047      H1057   1.083       .  S
C1048      C1053   1.500       .  S
C1048      C1049   1.413       .  A
C1049      C1050   1.409       .  A
C1049      O1054   1.371       .  S
C1050      C1051   1.406       .  A
C1050      H1055   1.084       .  S
C1051      C1052   1.406       .  A
C1052      O1056   1.372       .  S
C1053      C1058   1.408       .  A
C1053      C1062   1.410       .  A
O1054      H1070   0.992       .  S
O1056      H1067   0.992       .  S
C1058      C1059   1.399       .  A
C1058      O1063   1.373       .  S
C1059      C1060   1.408       .  A
C1059      H1064   1.078       .  S
C1060      C1061   1.414       .  A
C1061      C1062   1.413       .  A
C1061      O1065   1.371       .  S
C1062      H1066   1.083       .  S
O1063      H1068   0.993       .  S
O1065      H1069   0.992       .  S
C1071      C1072   1.406       .  A
C1071      C1076   1.404       .  A
C1071      H1081   1.083       .  S
C1072      C1077   1.493       .  S
C1072      C1073   1.408       .  A
C1073      C1074   1.405       .  A
C1073      O1078   1.372       .  S
C1074      C1075   1.410       .  A
C1074      H1079   1.083       .  S
C1075      C1076   1.414       .  A
C1076      O1080   1.372       .  S
C1077      C1082   1.406       .  A
C1077      C1086   1.409       .  A
O1078      H1094   0.992       .  S
O1080      H1091   0.992       .  S
C1082      C1083   1.398       .  A
C1082      O1087   1.373       .  S
C1083      C1084   1.406       .  A
C1083      H1088   1.077       .  S
C1084      C1085   1.410       .  A
C1085      C1086   1.412       .  A
C1085      O1089   1.372       .  S
C1086      H1090   1.083       .  S
O1087      H1092   0.991       .  S
O1089      H1093   0.991       .  S
C1095      C1096   1.401       .  A
C1095      C1100   1.396       .  A
C1095      H1105   1.084       .  S
C1096      C1101   1.499       .  S
C1096      C1097   1.416       .  A
C1097      C1098   1.414       .  A
C1097      O1102   1.373       .  S
C1098      C1099   1.407       .  A
C1098      H1103   1.083       .  S
C1099      C1100   1.417       .  A
C1100      O1104   1.372       .  S
C1101      C1106   1.412       .  A
C1101      C1110   1.408       .  A
O1102      H1118   0.992       .  S
O1104      H1115   0.992       .  S
C1106      C1107   1.405       .  A
C1106      O1111   1.371       .  S
C1107      C1108   1.408       .  A
C1107      H1112   1.082       .  S
C1108      C1109   1.406       .  A
C1109      C1110   1.403       .  A
C1109      O1113   1.373       .  S
C1110      H1114   1.083       .  S
O1111      H1116   0.992       .  S
O1113      H1117   0.992       .  S
C1119      C1120   1.396       .  A
C1119      C1124   1.399       .  A
C1119      H1129   1.084       .  S
C1120      C1125   1.481       .  S
C1120      C1121   1.405       .  A
C1121      C1122   1.405       .  A
C1121      O1126   1.371       .  S
C1122      C1123   1.411       .  A
C1122      H1127   1.083       .  S
C1123      C1124   1.419       .  A
C1124      O1128   1.371       .  S
C1125      C1130   1.404       .  A
C1125      C1134   1.406       .  A
O1126      H1142   0.991       .  S
O1128      H1139   0.991       .  S
C1130      C1131   1.399       .  A
C1130      O1135   1.372       .  S
C1131      C1132   1.408       .  A
C1131      H1136   1.084       .  S
C1132      C1133   1.407       .  A
C1133      C1134   1.404       .  A
C1133      O1137   1.372       .  S
C1134      H1138   1.084       .  S
O1135      H1140   0.992       .  S
O1137      H1141   0.992       .  S
C1143      C1144   1.413       .  A
C1143      C1148   1.412       .  A
C1143      H1153   1.083       .  S
C1144      C1149   1.505       .  S
C1144      C1145   1.409       .  A
C1145      C1146   1.398       .  A
C1145      O1150   1.372       .  S
C1146      C1147   1.410       .  A
C1146      H1151   1.083       .  S
C1147      C1148   1.411       .  A
C1148      O1152   1.372       .  S
C1149      C1154   1.411       .  A
C1149      C1158   1.415       .  A
O1150      H1166   0.992       .  S
O1152      H1163   0.991       .  S
C1154      C1155   1.398       .  A
C1154      O1159   1.371       .  S
C1155      C1156   1.406       .  A
C1155      H1160   1.078       .  S
C1156      C1157   1.403       .  A
C1157      C1158   1.410       .  A
C1157      O1161   1.371       .  S
C1158      H1162   1.083       .  S
O1159      H1164   0.992       .  S
O1161      H1165   0.991       .  S
C1167      C1168   1.402       .  A
C1167      C1172   1.400       .  A
C1167      H1177   1.084       .  S
C1168      C1173   1.492       .  S
C1168      C1169   1.414       .  A
C1169      C1170   1.407       .  A
C1169      O1174   1.373       .  S
C1170      C1171   1.404       .  A
C1170      H1175   1.084       .  S
C1171      C1172   1.413       .  A
C1172      O1176   1.372       .  S
C1173      C1178   1.404       .  A
C1173      C1182   1.411       .  A
O1174      H1190   0.993       .  S
O1176      H1187   0.992       .  S
C1178      C1179   1.394       .  A
C1178      O1183   1.372       .  S
C1179      C1180   1.410       .  A
C1179      H1184   1.075       .  S
C1180      C1181   1.410       .  A
C1181      C1182   1.412       .  A
C1181      O1185   1.372       .  S
C1182      H1186   1.083       .  S
O1183      H1188   0.990       .  S
O1185      H1189   0.992       .  S
C1191      C1192   1.401       .  A
C1191      C1196   1.403       .  A
C1191      H1201   1.084       .  S
C1192      C1197   1.496       .  S
C1192      C1193   1.411       .  A
C1193      C1194   1.411       .  A
C1193      O1198   1.371       .  S
C1194      C1195   1.407       .  A
C1194      H1199   1.083       .  S
C1195      C1196   1.417       .  A
C1196      O1200   1.370       .  S
C1197      C1202   1.408       .  A
C1197      C1206   1.406       .  A
O1198      H1214   0.992       .  S
O1200      H1211   0.992       .  S
C1202      C1203   1.406       .  A
C1202      O1207   1.371       .  S
C1203      C1204   1.412       .  A
C1203      H1208   1.083       .  S
C1204      C1205   1.414       .  A
C1205      C1206   1.406       .  A
C1205      O1209   1.371       .  S
C1206      H1210   1.084       .  S
O1207      H1212   0.992       .  S
O1209      H1213   0.992       .  S
C1215      C1216   1.403       .  A
C1215      C1220   1.397       .  A
C1215      H1225   1.083       .  S
C1216      C1221   1.471       .  S
C1216      C1217   1.406       .  A
C1217      C1218   1.393       .  A
C1217      O1222   1.372       .  S
C1218      C1219   1.400       .  A
C1218      H1223   1.079       .  S
C1219      C1220   1.402       .  A
C1220      O1224   1.375       .  S
C1221      C1226   1.408       .  A
C1221      C1230   1.400       .  A
O1222      H1238   0.992       .  S
O1224      H1235   0.992       .  S
C1226      C1227   1.394       .  A
C1226      O1231   1.373       .  S
C1227      C1228   1.401       .  A
C1227      H1232   1.084       .  S
C1228      C1229   1.413       .  A
C1229      C1230   1.394       .  A
C1229      O1233   1.372       .  S
C1230      H1234   1.084       .  S
O1231      H1236   0.992       .  S
O1233      H1237   0.992       .  S
C1239      C1240   1.404       .  A
C1239      C1244   1.399       .  A
C1239      H1249   1.084       .  S
C1240      C1245   1.470       .  S
C1240      C1241   1.404       .  A
C1241      C1242   1.390       .  A
C1241      O1246   1.372       .  S
C1242      C1243   1.406       .  A
C1242      H1247   1.084       .  S
C1243      C1244   1.407       .  A
C1244      O1248   1.372       .  S
C1245      C1250   1.405       .  A
C1245      C1254   1.400       .  A
O1246      H1262   0.992       .  S
O1248      H1259   0.992       .  S
C1250      C1251   1.396       .  A
C1250      O1255   1.372       .  S
C1251      C1252   1.404       .  A
C1251      H1256   1.082       .  S
C1252      C1253   1.406       .  A
C1253      C1254   1.393       .  A
C1253      O1257   1.366       .  S
C1254      H1258   1.084       .  S
O1255      H1260   0.992       .  S
O1257      H1261   0.991       .  S
C1263      C1264   1.405       .  A
C1263      C1268   1.395       .  A
C1263      H1273   1.083       .  S
C1264      C1269   1.467       .  S
C1264      C1265   1.403       .  A
C1265      C1266   1.389       .  A
C1265      O1270   1.372       .  S
C1266      C1267   1.407       .  A
C1266      H1271   1.084       .  S
C1267      C1268   1.405       .  A
C1268      O1272   1.371       .  S
C1269      C1274   1.404       .  A
C1269      C1278   1.403       .  A
O1270      H1286   0.992       .  S
O1272      H1283   0.992       .  S
C1274      C1275   1.390       .  A
C1274      O1279   1.373       .  S
C1275      C1276   1.401       .  A
C1275      H1280   1.080       .  S
C1276      C1277   1.404       .  A
C1277      C1278   1.393       .  A
C1277      O1281   1.368       .  S
C1278      H1282   1.084       .  S
O1279      H1284   0.992       .  S
O1281      H1285   0.991       .  S
C1287      C1288   1.399       .  A
C1287      C1292   1.399       .  A
C1287      H1297   1.084       .  S
C1288      C1293   1.473       .  S
C1288      C1289   1.407       .  A
C1289      C1290   1.397       .  A
C1289      O1294   1.372       .  S
C1290      C1291   1.396       .  A
C1290      H1295   1.079       .  S
C1291      C1292   1.411       .  A
C1292      O1296   1.372       .  S
C1293      C1298   1.406       .  A
C1293      C1302   1.401       .  A
O1294      H1310   0.992       .  S
O1296      H1307   0.992       .  S
C1298      C1299   1.400       .  A
C1298      O1303   1.373       .  S
C1299      C1300   1.404       .  A
C1299      H1304   1.084       .  S
C1300      C1301   1.409       .  A
C1301      C1302   1.395       .  A
C1301      O1305   1.372       .  S
C1302      H1306   1.084       .  S
O1303      H1308   0.992       .  S
O1305      H1309   0.992       .  S
C1311      C1312   1.400       .  A
C1311      C1316   1.396       .  A
C1311      H1321   1.084       .  S
C1312      C1317   1.481       .  S
C1312      C1313   1.408       .  A
C1313      C1314   1.402       .  A
C1313      O1318   1.371       .  S
C1314      C1315   1.406       .  A
C1314      H1319   1.083       .  S
C1315      C1316   1.408       .  A
C1316      O1320   1.370       .  S
C1317      C1322   1.405       .  A
C1317      C1326   1.405       .  A
O1318      H1334   0.992       .  S
O1320      H1331   0.992       .  S
C1322      C1323   1.395       .  A
C1322      O1327   1.373       .  S
C1323      C1324   1.407       .  A
C1323      H1328   1.084       .  S
C1324      C1325   1.411       .  A
C1325      C1326   1.404       .  A
C1325      O1329   1.371       .  S
C1326      H1330   1.084       .  S
O1327      H1332   0.992       .  S
O1329      H1333   0.992       .  S
C1335      C1336   1.401       .  A
C1335      C1340   1.391       .  A
C1335      H1345   1.083       .  S
C1336      C1341   1.471       .  S
C1336      C1337   1.407       .  A
C1337      C1338   1.393       .  A
C1337      O1342   1.372       .  S
C1338      C1339   1.404       .  A
C1338      H1343   1.084       .  S
C1339      C1340   1.411       .  A
C1340      O1344   1.372       .  S
C1341      C1346   1.404       .  A
C1341      C1350   1.405       .  A
O1342      H1358   0.992       .  S
O1344      H1355   0.992       .  S
C1346      C1347   1.390       .  A
C1346      O1351   1.372       .  S
C1347      C1348   1.403       .  A
C1347      H1352   1.080       .  S
C1348      C1349   1.405       .  A
C1349      C1350   1.395       .  A
C1349      O1353   1.372       .  S
C1350      H1354   1.083       .  S
O1351      H1356   0.991       .  S
O1353      H1357   0.992       .  S
C1359      C1360   1.401       .  A
C1359      C1364   1.396       .  A
C1359      H1369   1.084       .  S
C1360      C1365   1.472       .  S
C1360      C1361   1.405       .  A
C1361      C1362   1.395       .  A
C1361      O1366   1.372       .  S
C1362      C1363   1.405       .  A
C1362      H1367   1.083       .  S
C1363      C1364   1.413       .  A
C1364      O1368   1.372       .  S
C1365      C1370   1.405       .  A
C1365      C1374   1.403       .  A
O1366      H1382   0.992       .  S
O1368      H1379   0.992       .  S
C1370      C1371   1.393       .  A
C1370      O1375   1.372       .  S
C1371      C1372   1.402       .  A
C1371      H1376   1.083       .  S
C1372      C1373   1.408       .  A
C1373      C1374   1.397       .  A
C1373      O1377   1.371       .  S
C1374      H1378   1.084       .  S
O1375      H1380   0.992       .  S
O1377      H1381   0.991       .  S
C1383      C1384   1.404       .  A
C1383      C1388   1.396       .  A
C1383      H1393   1.084       .  S
C1384      C1389   1.475       .  S
C1384      C1385   1.406       .  A
C1385      C1386   1.397       .  A
C1385      O1390   1.373       .  S
C1386      C1387   1.403       .  A
C1386      H1391   1.082       .  S
C1387      C1388   1.406       .  A
C1388      O1392   1.373       .  S
C1389      C1394   1.408       .  A
C1389      C1398   1.402       .  A
O1390      H1406   0.992       .  S
O1392      H1403   0.992       .  S
C1394      C1395   1.396       .  A
C1394      O1399   1.372       .  S
C1395      C1396   1.404       .  A
C1395      H1400   1.084       .  S
C1396      C1397   1.409       .  A
C1397      C1398   1.395       .  A
C1397      O1401   1.372       .  S
C1398      H1402   1.084       .  S
O1399      H1404   0.992       .  S
O1401      H1405   0.993       .  S
