geometry optimzed in LAMMPS
_audit_creation_date              2020-11-30 
_audit_creation_method            'lammps2cif' 
_symmetry_space_group_name_H-M    'P1' 
_symmetry_Int_Tables_number       1 
_symmetry_cell_setting            triclinic 
loop_ 
_symmetry_equiv_pos_as_xyz 
  x,y,z 
_cell_length_a                    39.68139446 
_cell_length_b                    39.73032459711397 
_cell_length_c                    47.97981798628372 
_cell_angle_alpha                 89.96416552414486 
_cell_angle_beta                  90.0109400843337 
_cell_angle_gamma                 123.25046840265841 
loop_ 
_atom_site_label 
_atom_site_type_symbol 
_atom_site_fract_x 
_atom_site_fract_y 
_atom_site_fract_z 
_atom_site_charge 
C1          C  0.80737941  0.33798740  0.70045004     0.88100
C2          C  0.82903278  0.33754230  0.67405487    -0.52100
C3          C  0.81132787  0.33895075  0.64991047     0.11100
C4          C  0.77354247  0.34024611  0.65465816     0.22000
C5          C  0.80578377  0.37560887  0.69771120    -0.52800
C6          C  0.78792843  0.37663121  0.67377094     0.11200
C7          C  0.76349370  0.30246443  0.69720554    -0.52300
C8          C  0.74574052  0.30379337  0.67329333     0.11700
H9          H  0.85620891  0.33721084  0.67443234     0.16300
H10         H  0.75874794  0.34127950  0.63529741     0.02000
H11         H  0.81617838  0.39843836  0.71381907     0.16600
H12         H  0.74718677  0.27975944  0.71319791     0.16400
C13         C  0.81026428  0.34113368  0.83222762     0.88100
C14         C  0.76647520  0.30559640  0.83575512    -0.52100
C15         C  0.74865532  0.30781142  0.85929326     0.11100
C16         C  0.77607358  0.34499826  0.87726259     0.22000
C17         C  0.80842185  0.37872759  0.83379678    -0.52800
C18         C  0.79039730  0.38051461  0.85738383     0.11200
C19         C  0.83183148  0.34182695  0.85908014    -0.52300
C20         C  0.81378997  0.34406251  0.88279766     0.11700
H21         H  0.75033208  0.28207643  0.82026139     0.16300
H22         H  0.76105377  0.34665651  0.89628470     0.02000
H23         H  0.81888839  0.40098452  0.81726019     0.16600
H24         H  0.85900869  0.34149755  0.85929972     0.16400
C25         C  0.68324400  0.51861117  0.70289011     0.88100
C26         C  0.64325887  0.47726728  0.70190268    -0.52100
C27         C  0.63871481  0.45595794  0.67842068     0.11100
C28         C  0.67411834  0.47766157  0.65804888     0.22000
C29         C  0.71590883  0.50951869  0.69899390    -0.52800
C30         C  0.71094434  0.48795253  0.67552694     0.11200
C31         C  0.68409794  0.54011208  0.67594135    -0.52300
C32         C  0.67911836  0.51834750  0.65233039     0.11700
H33         H  0.62137984  0.46526489  0.71875265     0.16300
H34         H  0.67011998  0.45970074  0.63911903     0.02000
H35         H  0.73955713  0.51759679  0.71412333     0.16600
H36         H  0.68740872  0.56910697  0.67560302     0.16400
C37         C  0.68601634  0.52336840  0.83434908     0.88100
C38         C  0.71889506  0.51455532  0.83765398    -0.52100
C39         C  0.71481711  0.49332381  0.86110135     0.11100
C40         C  0.67860182  0.48317353  0.87929464     0.22000
C41         C  0.64619376  0.48194628  0.83599958    -0.52800
C42         C  0.64252317  0.46095672  0.85948054     0.11200
C43         C  0.68772945  0.54529052  0.86127905    -0.52300
C44         C  0.68359205  0.52392056  0.88497912     0.11700
H45         H  0.74176506  0.52212757  0.82197047     0.16300
H46         H  0.67536451  0.46554595  0.89826156     0.02000
H47         H  0.62390606  0.46949680  0.81941349     0.16600
H48         H  0.69068393  0.57411874  0.86155224     0.16400
C49         C  0.48593044  0.19553555  0.70257149     0.88100
C50         C  0.46425838  0.17417030  0.67536229    -0.52100
C51         C  0.48661966  0.19350647  0.65203207     0.11100
C52         C  0.52781712  0.23230795  0.65826298     0.22000
C53         C  0.52680034  0.19963801  0.70134540    -0.52800
C54         C  0.54859568  0.21894525  0.67805183     0.11200
C55         C  0.49630230  0.23861883  0.69963287    -0.52300
C56         C  0.51837017  0.25783652  0.67649560     0.11700
H57         H  0.43498977  0.14595323  0.67465733     0.16300
H58         H  0.54610843  0.24843650  0.63951912     0.02000
H59         H  0.53794251  0.18934774  0.71775113     0.16600
H60         H  0.48888661  0.25336435  0.71524881     0.16400
C61         C  0.48957112  0.19948130  0.83225566     0.88100
C62         C  0.50118740  0.24306532  0.83494350    -0.52100
C63         C  0.52365456  0.26214355  0.85800631     0.11100
C64         C  0.53229402  0.23603918  0.87630789     0.22000
C65         C  0.52982198  0.20237327  0.83334530    -0.52800
C66         C  0.55204048  0.22161527  0.85648110     0.11200
C67         C  0.46794220  0.17878699  0.85960597    -0.52300
C68         C  0.49069187  0.19795173  0.88278750     0.11700
H69         H  0.49396595  0.25803525  0.81937345     0.16300
H70         H  0.55094052  0.25199478  0.89495587     0.02000
H71         H  0.54034622  0.19149543  0.81692718     0.16600
H72         H  0.43835963  0.15095248  0.86050532     0.16400
In73       In  0.45838204  0.14797202  0.57169249     1.36900
C74         C  0.41170249  0.06878527  0.57713990     0.79200
O75         O  0.47918408  0.14117227  0.52960716    -0.59200
O76         O  0.51857952  0.15676605  0.56413912    -0.50100
C77         C  0.43969523  0.19383561  0.54405750     0.71900
O78         O  0.41452528  0.15669565  0.54765218    -0.45000
C79         C  0.47514113  0.17739622  0.62348029     0.76600
O80         O  0.39759759  0.08938037  0.57024795    -0.56800
O81         O  0.50048758  0.19089312  0.60400745    -0.46900
O82         O  0.44887901  0.08867141  0.58228416    -0.53300
C83         C  0.51259903  0.14901116  0.53850355     0.86800
O84         O  0.47338208  0.20755585  0.55537941    -0.55200
O85         O  0.44024633  0.14898584  0.61650355    -0.58500
In86       In  0.45759562  0.34064328  0.46495884     1.36900
C87         C  0.40706838  0.36428362  0.45991056     0.79200
O88         O  0.48470512  0.37281684  0.50557893    -0.59200
O89         O  0.51962464  0.39739492  0.46880125    -0.50100
C90         C  0.43820804  0.27540393  0.49458259     0.71900
O91         O  0.41849398  0.29157106  0.49632005    -0.45000
C92         C  0.47402368  0.32954036  0.41291460     0.76600
O93         O  0.39483627  0.32752648  0.46049787    -0.56800
O94         O  0.49893109  0.34222697  0.43265267    -0.46900
O95         O  0.44471044  0.38854767  0.46105089    -0.53300
C96         C  0.51743340  0.40008627  0.49480190     0.86800
O97         O  0.46617789  0.29115942  0.47695793    -0.55200
O98         O  0.43980246  0.32198286  0.41960973    -0.58500
In99       In  0.65640513  0.14992329  0.46332767     1.36900
C100        C  0.72334164  0.19792058  0.49258205     0.79200
O101        O  0.66913904  0.15165369  0.41707529    -0.59200
O102        O  0.65701601  0.19352528  0.43324404    -0.50100
C103        C  0.63464069  0.07368199  0.45932817     0.71900
O104        O  0.67089613  0.10265536  0.45706734    -0.45000
C105        C  0.59806923  0.14882604  0.49164049     0.76600
O106        O  0.69916408  0.16136021  0.49859370    -0.56800
O107        O  0.59452288  0.13922236  0.46630924    -0.46900
O108        O  0.71458282  0.20944450  0.47092770    -0.53300
C109        C  0.66491110  0.18031026  0.41210226     0.86800
O110        O  0.60997097  0.08362591  0.46359353    -0.55200
O111        O  0.63111905  0.15882408  0.50255780    -0.58500
In112      In  0.85922011  0.35152447  0.57088086     1.36900
C113        C  0.81068730  0.28431675  0.54218166     0.79200
O114        O  0.85843797  0.34017529  0.61724238    -0.59200
O115        O  0.81356495  0.34776893  0.60040527    -0.50100
C116        C  0.93612241  0.37472818  0.57487388     0.71900
O117        O  0.90780311  0.33813349  0.57352492    -0.45000
C118        C  0.85843929  0.40851208  0.54220562     0.76600
O119        O  0.84527476  0.31124772  0.53376872    -0.56800
O120        O  0.86121491  0.40936068  0.56835204    -0.46900
O121        O  0.80163326  0.29041187  0.56594193    -0.53300
C122        C  0.82815621  0.34205298  0.62183339     0.86800
O123        O  0.92517783  0.39903308  0.57470118    -0.57600
O124        O  0.85591514  0.37878591  0.53078040    -0.58500
In125      In  0.85942473  0.54999538  0.46449199     1.36900
C126        C  0.93894879  0.59618257  0.45851964     0.79200
O127        O  0.87344364  0.52988396  0.50410723    -0.59200
O128        O  0.84580515  0.48768930  0.47098638    -0.50100
C129        C  0.81558945  0.56923865  0.49443592     0.71900
O130        O  0.84751542  0.59562836  0.48226398    -0.45000
C131        C  0.82688077  0.53286477  0.41341896     0.76600
O132        O  0.91950083  0.60846568  0.47075675    -0.56800
O133        O  0.81435028  0.50760998  0.43290958    -0.46900
O134        O  0.91778458  0.56120094  0.44858809    -0.53300
C135        C  0.85948421  0.49467622  0.49547702     0.86800
O136        O  0.80580732  0.53370981  0.49066526    -0.55200
O137        O  0.85536454  0.56776331  0.42017813    -0.58500
In138      In  0.66727570  0.54934634  0.57206218     1.36900
C139        C  0.64245709  0.59899737  0.57744064     0.79200
O140        O  0.63734686  0.52234461  0.53072664    -0.59200
O141        O  0.60994947  0.48805367  0.56730655    -0.50100
C142        C  0.73451359  0.57094930  0.54407657     0.71900
O143        O  0.71664141  0.58885224  0.54101727    -0.45000
C144        C  0.67621051  0.53069847  0.62385850     0.76600
O145        O  0.67933577  0.61188720  0.57527903    -0.56800
O146        O  0.66524821  0.50684743  0.60357676    -0.46900
O147        O  0.61885151  0.56130094  0.57763715    -0.53300
C148        C  0.60871974  0.49019495  0.54120791     0.86800
O149        O  0.71943133  0.54370710  0.56225659    -0.55200
O150        O  0.68369626  0.56504522  0.61770748    -0.58500
In151      In  0.13706402  0.47474973  0.57133153     1.36900
C152        C  0.05740661  0.42824214  0.57630000     0.79200
O153        O  0.13756175  0.45822718  0.61660529    -0.59200
O154        O  0.18021515  0.51782353  0.60322231    -0.50100
C155        C  0.18057896  0.45314677  0.54391281     0.71900
O156        O  0.14265498  0.43183447  0.54390752    -0.45000
C157        C  0.14228534  0.53058849  0.53755023     0.76600
O158        O  0.07855643  0.41363702  0.57347805    -0.56800
O159        O  0.14755120  0.53562134  0.56347189    -0.46900
O160        O  0.07694894  0.46602633  0.57774370    -0.53300
C161        C  0.16625547  0.49321395  0.62314242     0.86800
O162        O  0.19611170  0.48386065  0.55916014    -0.55200
O163        O  0.13510160  0.49745562  0.52871789    -0.58500
In164      In  0.32658109  0.47328045  0.46396523     1.36900
C165        C  0.34947798  0.42200996  0.46083145     0.79200
O166        O  0.31040891  0.45649126  0.41845622    -0.59200
O167        O  0.32846074  0.51490599  0.43172135    -0.50100
C168        C  0.26049047  0.45185902  0.49280682     0.71900
O169        O  0.27980516  0.43555213  0.49657358    -0.45000
C170        C  0.38520670  0.53425580  0.49335008     0.76600
O171        O  0.31296700  0.41046028  0.45869863    -0.56800
O172        O  0.38747432  0.53149496  0.46734929    -0.46900
O173        O  0.37377244  0.45918294  0.46449615    -0.53300
C174        C  0.31738943  0.49043890  0.41179593     0.86800
O175        O  0.27340413  0.47721721  0.47334171    -0.55200
O176        O  0.35306217  0.50630489  0.50429321    -0.58500
In177      In  0.13674430  0.67011381  0.46139140     1.36900
C178        C  0.05988261  0.64729995  0.45802750     0.79200
O179        O  0.13669879  0.68043346  0.41492907    -0.59200
O180        O  0.18083642  0.67159440  0.43142473    -0.50100
C181        C  0.18441610  0.73843792  0.48931318     0.71900
O182        O  0.14918357  0.71228086  0.49710910    -0.45000
C183        C  0.13978847  0.61415201  0.48992744     0.76600
O184        O  0.08860095  0.68351573  0.45535147    -0.56800
O185        O  0.13309528  0.61140527  0.46411588    -0.46900
O186        O  0.07031871  0.62296039  0.46202099    -0.53300
C187        C  0.16627628  0.67753736  0.41010330     0.86800
O188        O  0.19474223  0.73083465  0.46660072    -0.55200
O189        O  0.14432801  0.64492775  0.50123118    -0.58500
In190      In  0.33674561  0.87208012  0.56916400     1.36900
C191        C  0.27008564  0.82466634  0.53949899     0.79200
O192        O  0.36429110  0.87026379  0.52856724    -0.59200
O193        O  0.39603321  0.87707506  0.56593238    -0.50100
C194        C  0.35960779  0.94829488  0.57414570     0.71900
O195        O  0.32341603  0.91954998  0.57729975    -0.45000
C196        C  0.32788059  0.84321699  0.62118731     0.76600
O197        O  0.29027861  0.86237499  0.53716061    -0.56800
O198        O  0.33330977  0.82768730  0.60022294    -0.46900
O199        O  0.28244432  0.81145215  0.55794272    -0.53300
C200        C  0.39471078  0.87378758  0.53979437     0.86800
O201        O  0.38384808  0.93816755  0.56846500    -0.55200
O202        O  0.32582123  0.87301179  0.61557425    -0.58500
In203      In  0.53547681  0.68239524  0.57069702     1.36900
C204        C  0.58450488  0.65688882  0.57656872     0.79200
O205        O  0.55254991  0.70063999  0.61613561    -0.59200
O206        O  0.49423618  0.68246045  0.60245815    -0.50100
C207        C  0.55704405  0.74837394  0.54113326     0.71900
O208        O  0.57621188  0.73158254  0.53987160    -0.45000
C209        C  0.47605732  0.62396895  0.54004105     0.76600
O210        O  0.59769009  0.69366179  0.57344575    -0.56800
O211        O  0.47375435  0.62546185  0.56611966    -0.46900
O212        O  0.54670878  0.63359175  0.57732079    -0.53300
C213        C  0.51854728  0.69393658  0.62251126     0.86800
O214        O  0.52850787  0.73290377  0.55836071    -0.55200
O215        O  0.50864126  0.65191292  0.52958874    -0.58500
In216      In  0.53591767  0.87331458  0.46216614     1.36900
C217        C  0.58275883  0.95293036  0.45735103     0.79200
O218        O  0.55317557  0.87144180  0.41736138    -0.59200
O219        O  0.49400352  0.82762570  0.43064145    -0.50100
C220        C  0.55580352  0.82896985  0.49075112     0.71900
O221        O  0.58219290  0.86278233  0.48072126    -0.45000
C222        C  0.48052463  0.87296943  0.49358144     0.76600
O223        O  0.59522386  0.93272828  0.46814265    -0.56800
O224        O  0.47481397  0.86308836  0.46825151    -0.46900
O225        O  0.54721345  0.93250279  0.44822668    -0.53300
C226        C  0.51880955  0.84171484  0.41084195     0.86800
O227        O  0.52008543  0.81763335  0.48540855    -0.55200
O228        O  0.51435194  0.88277422  0.50304490    -0.58500
C229        C  0.32699099  0.82852943  0.83261301     0.88100
C230        C  0.32423782  0.84815953  0.85943158    -0.52100
C231        C  0.32556798  0.82976142  0.88328445     0.11100
C232        C  0.32901300  0.79350064  0.87786475     0.22000
C233        C  0.36562390  0.82873036  0.83582433    -0.52800
C234        C  0.36650124  0.81024027  0.85946220     0.11200
C235        C  0.29255576  0.78404662  0.83475522    -0.52300
C236        C  0.29375698  0.76579123  0.85840662     0.11700
H237        H  0.32276145  0.87464918  0.85956074     0.16300
H238        H  0.32994758  0.77815839  0.89695280     0.02000
H239        H  0.38925302  0.84070154  0.82016992     0.16600
H240        H  0.27047469  0.76792567  0.81837659     0.16400
C241        C  0.32592600  0.82705001  0.70062185     0.88100
C242        C  0.28988372  0.78323327  0.69850557    -0.52100
C243        C  0.29020597  0.76411822  0.67504909     0.11100
C244        C  0.32620434  0.79040577  0.65574667     0.22000
C245        C  0.36312208  0.82465883  0.69792827    -0.52800
C246        C  0.36301232  0.80526953  0.67450883     0.11200
C247        C  0.32501350  0.84738629  0.67353756    -0.52300
C248        C  0.32538907  0.82811969  0.64986179     0.11700
H249        H  0.26754978  0.76800770  0.71488086     0.16300
H250        H  0.32640018  0.77436686  0.63683387     0.02000
H251        H  0.38642247  0.83556171  0.71376117     0.16600
H252        H  0.32512722  0.87476970  0.67312460     0.16400
C253        C  0.50845289  0.70551704  0.83245602     0.88100
C254        C  0.46680886  0.66578803  0.83317834    -0.52100
C255        C  0.44506506  0.66124758  0.85645071     0.11100
C256        C  0.46680914  0.69652505  0.87692233     0.22000
C257        C  0.49983673  0.73846931  0.83617420    -0.52800
C258        C  0.47791725  0.73363189  0.85942274     0.11200
C259        C  0.52939015  0.70592943  0.85953318    -0.52300
C260        C  0.50722606  0.70088966  0.88294194     0.11700
H261        H  0.45502018  0.64395399  0.81633116     0.16300
H262        H  0.44863946  0.69264344  0.89572447     0.02000
H263        H  0.50850717  0.76227022  0.82106251     0.16600
H264        H  0.55817265  0.70871476  0.86009218     0.16400
C265        C  0.50755904  0.70301638  0.70151125     0.88100
C266        C  0.49830516  0.73545616  0.69737709    -0.52100
C267        C  0.47644503  0.73003957  0.67398616     0.11100
C268        C  0.46622058  0.69315562  0.65670746     0.22000
C269        C  0.46614786  0.66300311  0.70078707    -0.52800
C270        C  0.44466414  0.65808332  0.67728079     0.11200
C271        C  0.52893775  0.70350282  0.67457418    -0.52300
C272        C  0.50691335  0.69806690  0.65096889     0.11700
H273        H  0.50599343  0.75896044  0.71251225     0.16300
H274        H  0.44807232  0.68887994  0.63780449     0.02000
H275        H  0.45421933  0.64143783  0.71781838     0.16600
H276        H  0.55790158  0.70666988  0.67426351     0.16400
C277        C  0.18340604  0.50542979  0.70228836     0.88100
C278        C  0.22691351  0.51658820  0.69979030    -0.52100
C279        C  0.24617287  0.53849888  0.67656315     0.11100
C280        C  0.22033080  0.54712835  0.65792794     0.22000
C281        C  0.18669882  0.54577150  0.70062669    -0.52800
C282        C  0.20610831  0.56750139  0.67736862     0.11200
C283        C  0.16262823  0.48335211  0.67507716    -0.52300
C284        C  0.18201611  0.50553390  0.65171739     0.11700
H285        H  0.24173488  0.50953869  0.71560550     0.16300
H286        H  0.23647614  0.56535858  0.63916855     0.02000
H287        H  0.17592194  0.55673630  0.71680584     0.16600
H288        H  0.13472041  0.45382699  0.67437494     0.16400
C289        C  0.18276954  0.50549482  0.83188531     0.88100
C290        C  0.16217759  0.48434959  0.85935563    -0.52100
C291        C  0.18216257  0.50693209  0.88241727     0.11100
C292        C  0.22099521  0.54794210  0.87566795     0.22000
C293        C  0.18703206  0.54633433  0.83305529    -0.52800
C294        C  0.20717723  0.56845322  0.85600584     0.11200
C295        C  0.22602617  0.51581552  0.83416431    -0.52300
C296        C  0.24608072  0.53824954  0.85702986     0.11700
H297        H  0.13380145  0.45525582  0.86043242     0.16300
H298        H  0.23762532  0.56645321  0.89420418     0.02000
H299        H  0.17639073  0.55731279  0.81677360     0.16600
H300        H  0.24024724  0.50816009  0.81828097     0.16400
C301        C  0.48608643  0.32273757  0.33381856     0.88100
C302        C  0.46391588  0.32081490  0.36076017    -0.52100
C303        C  0.48534796  0.32503820  0.38446957     0.11100
C304        C  0.52600319  0.32983286  0.37883628     0.22000
C305        C  0.52743895  0.36260324  0.33570041    -0.52800
C306        C  0.54813920  0.36606721  0.35928811     0.11200
C307        C  0.49507486  0.28996294  0.33703712    -0.52300
C308        C  0.51612736  0.29384349  0.36055814     0.11700
H309        H  0.43523345  0.31824122  0.36100895     0.16300
H310        H  0.54358445  0.33300523  0.39782251     0.02000
H311        H  0.53979936  0.38535903  0.31942686     0.16600
H312        H  0.48764095  0.26725129  0.32129490     0.16400
C313        C  0.48890263  0.32535220  0.20197538     0.88100
C314        C  0.49795990  0.29273817  0.19816283    -0.52100
C315        C  0.51948512  0.29757518  0.17471102     0.11100
C316        C  0.52993457  0.33438087  0.15714747     0.22000
C317        C  0.53029753  0.36528687  0.20090553    -0.52800
C318        C  0.55164253  0.36981081  0.17743271     0.11200
C319        C  0.46736090  0.32447210  0.17496221    -0.52300
C320        C  0.48931699  0.32963467  0.15135150     0.11700
H321        H  0.48990988  0.26919055  0.21336370     0.16300
H322        H  0.54796711  0.33831327  0.13825245     0.02000
H323        H  0.54221306  0.38731386  0.21763265     0.16600
H324        H  0.43846753  0.32145129  0.17461057     0.16400
C325        C  0.67084805  0.20165096  0.33343611     0.88100
C326        C  0.67083324  0.17988905  0.35992792    -0.52100
C327        C  0.66815581  0.19700223  0.38395688     0.11100
C328        C  0.66619159  0.23431032  0.37901002     0.22000
C329        C  0.63258761  0.20237231  0.33543085    -0.52800
C330        C  0.63032217  0.21959191  0.35929662     0.11200
C331        C  0.70573876  0.24565278  0.33719551    -0.52300
C332        C  0.70312524  0.26282130  0.36094641     0.11700
H333        H  0.67189191  0.15315409  0.35968866     0.16300
H334        H  0.66417542  0.24861929  0.39828448     0.02000
H335        H  0.61025464  0.19185480  0.31893602     0.16600
H336        H  0.72888829  0.26249570  0.32155093     0.16400
C337        C  0.67242424  0.20478303  0.20163456     0.88100
C338        C  0.70660598  0.24919068  0.19832353    -0.52100
C339        C  0.70391207  0.26636863  0.17456570     0.11100
C340        C  0.66770424  0.23752829  0.15609388     0.22000
C341        C  0.63357134  0.20437693  0.19929687    -0.52800
C342        C  0.63130770  0.22163429  0.17543627     0.11200
C343        C  0.67370278  0.18390728  0.17508648    -0.52300
C344        C  0.67096324  0.20103578  0.15108876     0.11700
H345        H  0.72928658  0.26617653  0.21420343     0.16300
H346        H  0.66562497  0.25184862  0.13682893     0.02000
H347        H  0.61087742  0.19319108  0.21558800     0.16600
H348        H  0.67537248  0.15752833  0.17526646     0.16400
C349        C  0.80752546  0.52242431  0.33432408     0.88100
C350        C  0.82902006  0.54398139  0.36158518    -0.52100
C351        C  0.81013178  0.52138293  0.38495835     0.11100
C352        C  0.77156952  0.48003214  0.37872426     0.22000
C353        C  0.80400424  0.48189993  0.33529734    -0.52800
C354        C  0.78506744  0.45978921  0.35854262     0.11200
C355        C  0.76419918  0.51146217  0.33766226    -0.52300
C356        C  0.74547674  0.48920293  0.36087443     0.11700
H357        H  0.85708392  0.57337297  0.36227423     0.16300
H358        H  0.75580170  0.46150916  0.39746482     0.02000
H359        H  0.81427742  0.47109541  0.31866123     0.16600
H360        H  0.74900759  0.51873853  0.32230657     0.16400
C361        C  0.81120694  0.52616931  0.20284028     0.88100
C362        C  0.76828169  0.51628791  0.19941170    -0.52100
C363        C  0.74945109  0.49475855  0.17600571     0.11100
C364        C  0.77520666  0.48533693  0.15795840     0.22000
C365        C  0.80663754  0.48517961  0.20136170    -0.52800
C366        C  0.78767211  0.46390457  0.17786466     0.11200
C367        C  0.83336296  0.54821665  0.17580009    -0.52300
C368        C  0.81443043  0.52640260  0.15214158     0.11700
H369        H  0.75321441  0.52334269  0.21501298     0.16300
H370        H  0.75938529  0.46745326  0.13902279     0.02000
H371        H  0.81606904  0.47339877  0.21789832     0.16600
H372        H  0.86175497  0.57733668  0.17544490     0.16400
In373      In  0.53780417  0.87872645  0.07048071     1.36900
C374        C  0.58584534  0.95779346  0.07716699     0.79200
O375        O  0.51568316  0.88365507  0.02836647    -0.59200
O376        O  0.47768991  0.87039277  0.06342781    -0.50100
C377        C  0.55724423  0.83419100  0.04191193     0.71900
O378        O  0.58089112  0.87183519  0.04387411    -0.45000
C379        C  0.51964322  0.84840604  0.12208319     0.76600
O380        O  0.59964102  0.93633389  0.07229192    -0.56800
O381        O  0.49480605  0.83494081  0.10229070    -0.46900
O382        O  0.54810850  0.93886653  0.07928568    -0.53300
C383        C  0.48267751  0.87652379  0.03757385     0.86800
O384        O  0.52508961  0.81939497  0.05555930    -0.55200
O385        O  0.55461873  0.87702370  0.11547131    -0.58500
In386      In  0.53647867  0.68622778  0.96296919     1.36900
C387        C  0.58722276  0.66262291  0.95813142     0.79200
O388        O  0.50731461  0.65619343  0.00378781    -0.59200
O389        O  0.47684900  0.62689306  0.96633458    -0.50100
C390        C  0.55679352  0.75231923  0.99172281     0.71900
O391        O  0.57576628  0.73541180  0.99402288    -0.45000
C392        C  0.51878742  0.69678616  0.91134888     0.76600
O393        O  0.59953388  0.69936418  0.95956240    -0.56800
O394        O  0.49420273  0.68437315  0.93128117    -0.46900
O395        O  0.54957217  0.63852825  0.95858658    -0.53300
C396        C  0.47698880  0.62624551  0.99255103     0.86800
O397        O  0.52879630  0.73663871  0.97407747    -0.55200
O398        O  0.55320127  0.70458340  0.91774496    -0.58500
In399      In  0.13664773  0.67429483  0.07042582     1.36900
C400        C  0.18514154  0.74218663  0.04269057     0.79200
O401        O  0.13540169  0.68032822  0.11708290    -0.59200
O402        O  0.18188048  0.67598492  0.09953132    -0.50100
C403        C  0.06166942  0.65577566  0.07433100     0.71900
O404        O  0.09158983  0.69119039  0.07806072    -0.45000
C405        C  0.13502947  0.61640049  0.04176701     0.76600
O406        O  0.14930335  0.71732840  0.03526788    -0.56800
O407        O  0.12456876  0.61219067  0.06693028    -0.46900
O408        O  0.19552874  0.73352492  0.06494209    -0.53300
C409        C  0.16603816  0.67904280  0.12130373     0.86800
O410        O  0.07005832  0.63031983  0.06851719    -0.55200
O411        O  0.14605402  0.64985925  0.03116172    -0.58500
In412      In  0.33817546  0.87532247  0.96308743     1.36900
C413        C  0.27238185  0.82830628  0.99335746     0.79200
O414        O  0.32364056  0.87368510  0.91717891    -0.59200
O415        O  0.33550436  0.83123340  0.93260050    -0.50100
C416        C  0.36022909  0.95128878  0.95803474     0.71900
O417        O  0.32372418  0.92254263  0.95774192    -0.45000
C418        C  0.39673308  0.87633225  0.99104430     0.76600
O419        O  0.29564107  0.86539782  0.99805490    -0.56800
O420        O  0.39807350  0.88135683  0.96507305    -0.46900
O421        O  0.28163760  0.81562510  0.97261489    -0.53300
C422        C  0.32777130  0.84509882  0.91172993     0.86800
O423        O  0.38513871  0.94125866  0.96066148    -0.55200
O424        O  0.36601035  0.87138516  0.00278809    -0.58500
In425      In  0.13554718  0.47788472  0.96247795     1.36900
C426        C  0.05612760  0.43145846  0.95592689     0.79200
O427        O  0.12685125  0.49797627  0.00404598    -0.59200
O428        O  0.14541842  0.53835536  0.96976715    -0.50100
C429        C  0.18076098  0.45888465  0.99113427     0.71900
O430        O  0.14331526  0.43453728  0.98817276    -0.45000
C431        C  0.16604282  0.49556157  0.91099402     0.76600
O432        O  0.07667426  0.41700323  0.96208776    -0.56800
O433        O  0.17919310  0.52080929  0.93050323    -0.46900
O434        O  0.07618672  0.46891275  0.95205514    -0.53300
C435        C  0.13594820  0.53176204  0.99513450     0.86800
O436        O  0.19512726  0.49185057  0.97864097    -0.55200
O437        O  0.13764128  0.46059776  0.91784952    -0.58500
In438      In  0.32833807  0.47615388  0.06972824     1.36900
C439        C  0.35205794  0.42531661  0.07320978     0.79200
O440        O  0.35704117  0.50330359  0.02812490    -0.59200
O441        O  0.38736426  0.53570519  0.06476684    -0.50100
C442        C  0.26191807  0.45712909  0.04141053     0.71900
O443        O  0.27486850  0.43443125  0.04190343    -0.45000
C444        C  0.32042750  0.49430742  0.12215303     0.76600
O445        O  0.31535380  0.41309130  0.07098328    -0.56800
O446        O  0.33167258  0.51851900  0.10209219    -0.46900
O447        O  0.37609109  0.46294681  0.07416609    -0.53300
C448        C  0.38700153  0.53447211  0.03856796     0.86800
O449        O  0.28123643  0.48789677  0.05651014    -0.55200
O450        O  0.31198157  0.45982264  0.11549923    -0.58500
In451      In  0.86244494  0.55711045  0.07202755     1.36900
C452        C  0.94169989  0.60560720  0.07686491     0.79200
O453        O  0.85878390  0.57380718  0.11684586    -0.59200
O454        O  0.81922954  0.51343428  0.10401072    -0.50100
C455        C  0.81553250  0.57518543  0.04535219     0.71900
O456        O  0.84839201  0.60204021  0.05630283    -0.45000
C457        C  0.86404712  0.50424433  0.03856776     0.76600
O458        O  0.92122229  0.61580826  0.06360170    -0.56800
O459        O  0.85361612  0.49693446  0.06378078    -0.46900
O460        O  0.92168103  0.57162709  0.08842990    -0.53300
C461        C  0.83119566  0.53847912  0.12362657     0.86800
O462        O  0.80633079  0.53977860  0.04889986    -0.55200
O463        O  0.87386505  0.53857568  0.03031355    -0.58500
In464      In  0.66957072  0.55502148  0.96482769     1.36900
C465        C  0.64515992  0.60494447  0.95887643     0.79200
O466        O  0.68886406  0.57102199  0.91953560    -0.59200
O467        O  0.66816628  0.51228414  0.93363488    -0.50100
C468        C  0.73438942  0.57608457  0.99541765     0.71900
O469        O  0.71732668  0.59499779  0.99658309    -0.45000
C470        C  0.61053665  0.49546640  0.99477663     0.76600
O471        O  0.68202362  0.61753725  0.96021599    -0.56800
O472        O  0.61079738  0.49502058  0.96855111    -0.46900
O473        O  0.62123005  0.56731356  0.95997075    -0.53300
C474        C  0.68054809  0.53638461  0.91342123     0.86800
O475        O  0.71987380  0.54819393  0.97773544    -0.55200
O476        O  0.64001642  0.52641106  0.00578422    -0.58500
In477      In  0.65870421  0.15354381  0.07191822     1.36900
C478        C  0.63847891  0.07816653  0.07774061     0.79200
O479        O  0.67481549  0.15767102  0.11771680    -0.59200
O480        O  0.65742945  0.19585978  0.10212753    -0.50100
C481        C  0.72452455  0.20456888  0.04258922     0.71900
O482        O  0.70567717  0.16704436  0.03936052    -0.45000
C483        C  0.59921798  0.14724021  0.04174431     0.76600
O484        O  0.67479813  0.10732671  0.07657900    -0.56800
O485        O  0.59839344  0.14607861  0.06795172    -0.46900
O486        O  0.61297895  0.08760301  0.07663713    -0.53300
C487        C  0.66798905  0.18452109  0.12295285     0.86800
O488        O  0.71099959  0.21590368  0.06151562    -0.55200
O489        O  0.62989227  0.15090896  0.03087659    -0.58500
In490      In  0.85927104  0.35826442  0.96274186     1.36900
C491        C  0.93535435  0.37995138  0.95700922     0.79200
O492        O  0.85776264  0.34296372  0.91705540    -0.59200
O493        O  0.81644587  0.35693153  0.93169722    -0.50100
C494        C  0.81005763  0.29194476  0.99240255     0.71900
O495        O  0.84744056  0.31342316  0.99661271    -0.45000
C496        C  0.86262612  0.41803902  0.99108373     0.76600
O497        O  0.90638928  0.34355382  0.95674022    -0.56800
O498        O  0.86247225  0.41688469  0.96486004    -0.46900
O499        O  0.92544733  0.40492049  0.95976123    -0.53300
C500        C  0.82971608  0.34780599  0.91120839     0.86800
O501        O  0.79797617  0.30323817  0.97247347    -0.55200
O502        O  0.86134695  0.38903610  0.00282967    -0.58500
In503      In  0.46143336  0.15061213  0.96261950     1.36900
C504        C  0.41321711  0.07170077  0.95638092     0.79200
O505        O  0.44384712  0.15394509  0.91817725    -0.59200
O506        O  0.50438970  0.19411779  0.93070809    -0.50100
C507        C  0.44488957  0.19658442  0.99237722     0.71900
O508        O  0.41820488  0.16056384  0.98646776    -0.45000
C509        C  0.51446309  0.14781713  0.99443169     0.76600
O510        O  0.39975399  0.09298348  0.96289089    -0.56800
O511        O  0.52084202  0.15741093  0.96904928    -0.46900
O512        O  0.45055257  0.09079490  0.95200409    -0.53300
C513        C  0.47904370  0.18173030  0.91128748     0.86800
O514        O  0.47915193  0.20921377  0.98243758    -0.55200
O515        O  0.48123981  0.14004379  0.00374056    -0.58500
In516      In  0.46132019  0.34407715  0.07045081     1.36900
C517        C  0.41027033  0.36769848  0.07335365     0.79200
O518        O  0.44374716  0.32635084  0.11603958    -0.59200
O519        O  0.50272966  0.34620578  0.10304310    -0.50100
C520        C  0.44371240  0.27856508  0.04187456     0.71900
O521        O  0.42190094  0.29251589  0.04078822    -0.45000
C522        C  0.52063161  0.40360953  0.04061810     0.76600
O523        O  0.39818659  0.33094742  0.07339039    -0.56800
O524        O  0.52151709  0.40277073  0.06683585    -0.46900
O525        O  0.44791498  0.39191023  0.07237669    -0.53300
C526        C  0.47794532  0.33391093  0.12282226     0.86800
O527        O  0.47306363  0.29675710  0.05829585    -0.55200
O528        O  0.48956805  0.37424770  0.02957132    -0.58500
C529        C  0.31206943  0.50484729  0.20135490     0.88100
C530        C  0.35071884  0.54736518  0.20092455    -0.52100
C531        C  0.35477085  0.56857739  0.17744763     0.11100
C532        C  0.32014402  0.54566325  0.15661500     0.22000
C533        C  0.27776478  0.51139477  0.19694741    -0.52800
C534        C  0.28219096  0.53286514  0.17354928     0.11200
C535        C  0.31340015  0.48458277  0.17436983    -0.52300
C536        C  0.31765934  0.50624231  0.15080644     0.11700
H537        H  0.37217919  0.55997323  0.21800755     0.16300
H538        H  0.32355979  0.56351137  0.13773197     0.02000
H539        H  0.25332645  0.50172767  0.21170306     0.16600
H540        H  0.31146568  0.45625311  0.17395359     0.16400
C541        C  0.30916581  0.50028583  0.33257821     0.88100
C542        C  0.27617995  0.50886912  0.33626517    -0.52100
C543        C  0.28095445  0.53068556  0.35950379     0.11100
C544        C  0.31804275  0.54189265  0.37700859     0.22000
C545        C  0.34892086  0.54183505  0.33333294    -0.52800
C546        C  0.35339027  0.56346363  0.35659785     0.11200
C547        C  0.30869286  0.47937452  0.35977507    -0.52300
C548        C  0.31367423  0.50163600  0.38316342     0.11700
H549        H  0.25234903  0.50019625  0.32116294     0.16300
H550        H  0.32188589  0.56013874  0.39573754     0.02000
H551        H  0.37092796  0.55359207  0.31656600     0.16600
H552        H  0.30579975  0.45058484  0.36042836     0.16400
C553        C  0.18520108  0.68090106  0.19988321     0.88100
C554        C  0.18608182  0.64288880  0.19722917    -0.52100
C555        C  0.20392642  0.64168844  0.17333926     0.11100
C556        C  0.21922627  0.67834611  0.15430281     0.22000
C557        C  0.22929482  0.71599364  0.19686420    -0.52800
C558        C  0.24719134  0.71451024  0.17311391     0.11200
C559        C  0.16408389  0.68186019  0.17340055    -0.52300
C560        C  0.18194053  0.68040503  0.14937178     0.11700
H561        H  0.17505012  0.61984727  0.21325112     0.16300
H562        H  0.23405627  0.67716652  0.13501466     0.02000
H563        H  0.24556798  0.73868210  0.21285475     0.16600
H564        H  0.13733314  0.68294881  0.17362564     0.16400
C565        C  0.18611280  0.68119063  0.33137350     0.88100
C566        C  0.23052872  0.71550212  0.33457650    -0.52100
C567        C  0.24779216  0.71310698  0.35838538     0.11100
C568        C  0.21911751  0.67694633  0.37692643     0.22000
C569        C  0.18589224  0.64251800  0.33381974    -0.52800
C570        C  0.20328561  0.64050928  0.35768882     0.11200
C571        C  0.16516877  0.68244876  0.35791082    -0.52300
C572        C  0.18245171  0.67996431  0.38192054     0.11700
H573        H  0.24739139  0.73823670  0.31870068     0.16300
H574        H  0.23356857  0.67504480  0.39618599     0.02000
H575        H  0.17465847  0.61972493  0.31762838     0.16600
H576        H  0.13876700  0.68412989  0.35771947     0.16400
C577        C  0.50870100  0.82892945  0.20112563     0.88100
C578        C  0.53008650  0.85102747  0.17400247    -0.52100
C579        C  0.50773095  0.83205343  0.15058999     0.11100
C580        C  0.46669296  0.79292980  0.15666193     0.22000
C581        C  0.46760302  0.82435091  0.20031443    -0.52800
C582        C  0.44571576  0.80542460  0.17699037     0.11200
C583        C  0.49875876  0.78604601  0.19749405    -0.52300
C584        C  0.47654840  0.76718476  0.17430436     0.11700
H585        H  0.55933415  0.87927904  0.17340767     0.16300
H586        H  0.44835489  0.77715104  0.13786901     0.02000
H587        H  0.45625324  0.83379520  0.21712422     0.16600
H588        H  0.50634780  0.77106304  0.21280453     0.16400
C589        C  0.50844774  0.82358169  0.33171779     0.88100
C590        C  0.49951234  0.78095587  0.33454985    -0.52100
C591        C  0.47758560  0.76112456  0.35766684     0.11100
C592        C  0.46696319  0.78570148  0.37598496     0.22000
C593        C  0.46692673  0.81795683  0.33297006    -0.52800
C594        C  0.44534854  0.79809225  0.35617575     0.11200
C595        C  0.52957823  0.84510982  0.35901902    -0.52300
C596        C  0.50749736  0.82521447  0.38233190     0.11700
H597        H  0.50750773  0.76685546  0.31881065     0.16300
H598        H  0.44883796  0.76916914  0.39469295     0.02000
H599        H  0.45522016  0.82774546  0.31662018     0.16600
H600        H  0.55829658  0.87389894  0.35979495     0.16400
C601        C  0.53017583  0.84715350  0.22745040    -0.16800
C602        C  0.53874598  0.85373824  0.25188481     0.07200
C603        C  0.53849358  0.85217523  0.28137968     0.09100
C604        C  0.52970472  0.84331177  0.30560189    -0.17700
C605        C  0.29075325  0.73788204  0.36279729    -0.16800
C606        C  0.32698870  0.75593300  0.36397303     0.07200
C607        C  0.36908167  0.77388551  0.36289067     0.09100
C608        C  0.40432697  0.78644352  0.36040677    -0.17700
C609        C  0.40449660  0.79362755  0.17327834    -0.16800
C610        C  0.36898413  0.77993411  0.17059304     0.07200
C611        C  0.32661819  0.76006595  0.16871102     0.09100
C612        C  0.29023841  0.74047912  0.16910716    -0.17700
C613        C  0.16904243  0.68327900  0.30472175    -0.16800
C614        C  0.16164523  0.68385911  0.28038853     0.07200
C615        C  0.16104120  0.68339228  0.25093750     0.09100
C616        C  0.16781033  0.68237958  0.22653735    -0.17700
C617        C  0.45891572  0.71844816  0.36124527    -0.16800
C618        C  0.43912363  0.68222102  0.36240867     0.07200
C619        C  0.41212365  0.64001281  0.36196477     0.09100
C620        C  0.38650404  0.60460698  0.36020395    -0.17700
C621        C  0.25692847  0.54708329  0.36446370    -0.16800
C622        C  0.23937718  0.56393405  0.36598535     0.07200
C623        C  0.22235440  0.58710053  0.36505124     0.09100
C624        C  0.21141390  0.60983734  0.36244297    -0.17700
C625        C  0.38660747  0.61032705  0.17376430    -0.16800
C626        C  0.41113628  0.64593757  0.17117956     0.07200
C627        C  0.43735845  0.68822271  0.16956122     0.09100
C628        C  0.45711567  0.72448646  0.17025188    -0.17700
C629        C  0.25720548  0.54800198  0.16798822    -0.16800
C630        C  0.23957078  0.56468913  0.16577036     0.07200
C631        C  0.22296974  0.58824878  0.16600646     0.09100
C632        C  0.21233833  0.61126759  0.16833974    -0.17700
C633        C  0.30761473  0.48374509  0.22775522    -0.16800
C634        C  0.30497584  0.47421689  0.25200155     0.07200
C635        C  0.30372602  0.47230688  0.28151961     0.09100
C636        C  0.30481041  0.47946547  0.30611819    -0.17700
C637        C  0.43736780  0.24586648  0.02469624    -0.11600
C638        C  0.43775439  0.22158541  0.00977521    -0.13200
C639        C  0.56800530  0.14546366  0.02544425    -0.11600
C640        C  0.54303039  0.14587733  0.01145226    -0.13200
C641        C  0.78279274  0.25846097  0.00990879    -0.11600
C642        C  0.75755555  0.23265378  0.02506972    -0.13200
C643        C  0.57897508  0.46308401  0.01093567    -0.11600
C644        C  0.55245610  0.43587142  0.02451759    -0.13200
C645        C  0.86447183  0.47536711  0.02063849    -0.11600
C646        C  0.86400674  0.44986130  0.00657014    -0.13200
C647        C  0.76642379  0.58371330  0.01383257    -0.11600
C648        C  0.79048509  0.58347641  0.02908016    -0.13200
C649        C  0.36628539  0.39891691  0.07408956    -0.11600
C650        C  0.38367620  0.38173176  0.07410965    -0.13200
C651        C  0.97686437  0.39261032  0.95489681    -0.11600
C652        C  0.01284158  0.40779758  0.95452770    -0.13200
C653        C  0.20540720  0.45099923  0.00846950    -0.11600
C654        C  0.22931549  0.45034123  0.02374561    -0.13200
C655        C  0.38868275  0.02860567  0.95525655    -0.11600
C656        C  0.37307417  0.99268792  0.95587803    -0.13200
C657        C  0.02072277  0.64449026  0.07659642    -0.11600
C658        C  0.98488131  0.62953501  0.07747999    -0.13200
C659        C  0.13513166  0.56053974  0.01246080    -0.11600
C660        C  0.13465880  0.58551386  0.02625815    -0.13200
C661        C  0.23905469  0.80176841  0.01111965    -0.11600
C662        C  0.21310961  0.77625571  0.02600271    -0.13200
C663        C  0.61356029  0.64841158  0.95673893    -0.11600
C664        C  0.63075475  0.63107390  0.95694203    -0.13200
C665        C  0.44507429  0.59362117  0.00842360    -0.11600
C666        C  0.41843616  0.56634070  0.02193429    -0.13200
C667        C  0.61061716  0.00088842  0.07922353    -0.11600
C668        C  0.62629178  0.03686419  0.07941732    -0.13200
C669        C  0.56445123  0.78534504  0.00905926    -0.11600
C670        C  0.56471970  0.80966687  0.02430612    -0.13200
C671        C  0.45311114  0.87605228  0.02005430    -0.11600
C672        C  0.42778682  0.87618595  0.00626285    -0.13200
C673        C  0.82917169  0.54668795  0.22954595    -0.16800
C674        C  0.83537524  0.55426095  0.25416710     0.07200
C675        C  0.83401805  0.55323530  0.28373226     0.09100
C676        C  0.82600650  0.54410621  0.30803365    -0.17700
C677        C  0.72780733  0.30940323  0.17051932    -0.16800
C678        C  0.74525609  0.34558225  0.16973055     0.07200
C679        C  0.76307458  0.38760523  0.17114355     0.09100
C680        C  0.77589927  0.42286675  0.17371967    -0.17700
C681        C  0.72776086  0.30582416  0.36514880    -0.16800
C682        C  0.74545835  0.34203758  0.36597016     0.07200
C683        C  0.76280423  0.38401980  0.36468841     0.09100
C684        C  0.77466824  0.41909913  0.36234249    -0.17700
C685        C  0.67335712  0.18515163  0.30663087    -0.16800
C686        C  0.67478458  0.17913555  0.28211305     0.07200
C687        C  0.67536135  0.18028853  0.25263040     0.09100
C688        C  0.67471406  0.18782436  0.22831390    -0.17700
C689        C  0.70671809  0.47536403  0.17203049    -0.16800
C690        C  0.67045731  0.45536133  0.17091473     0.07200
C691        C  0.62821709  0.42840612  0.17159562     0.09100
C692        C  0.59277929  0.40288857  0.17358104    -0.17700
C693        C  0.53655667  0.27413257  0.16965724    -0.16800
C694        C  0.55392978  0.25708872  0.16792082     0.07200
C695        C  0.57757522  0.24051891  0.16850576     0.09100
C696        C  0.60053549  0.22976325  0.17086094    -0.17700
C697        C  0.70292084  0.47000411  0.36533087    -0.16800
C698        C  0.66673719  0.45036631  0.36686015     0.07200
C699        C  0.62451913  0.42393140  0.36624284     0.09100
C700        C  0.58909938  0.39880989  0.36386556    -0.17700
C701        C  0.59985415  0.22829110  0.36366587    -0.16800
C702        C  0.57671162  0.23890695  0.36578960     0.07200
C703        C  0.55234006  0.25475276  0.36629051     0.09100
C704        C  0.53410302  0.27099296  0.36483582    -0.17700
C705        C  0.46613640  0.31939099  0.30709429    -0.16800
C706        C  0.45881721  0.31838853  0.28251782     0.07200
C707        C  0.45964428  0.31889731  0.25296614     0.09100
C708        C  0.46814408  0.32082860  0.22854746    -0.17700
C709        C  0.16414018  0.48386577  0.72831961    -0.16800
C710        C  0.15562696  0.47466228  0.75247770     0.07200
C711        C  0.15497771  0.47443270  0.78190445     0.09100
C712        C  0.16293186  0.48353117  0.80611443    -0.17700
C713        C  0.40316247  0.62568110  0.67384164    -0.16800
C714        C  0.36743444  0.60139070  0.67182755     0.07200
C715        C  0.32502789  0.57610569  0.67114995     0.09100
C716        C  0.28880202  0.55726637  0.67246169    -0.17700
C717        C  0.40352170  0.62848583  0.85979722    -0.16800
C718        C  0.36782517  0.60338248  0.86125353     0.07200
C719        C  0.32536611  0.57702824  0.86144300     0.09100
C720        C  0.28902945  0.55747808  0.86031460    -0.17700
C721        C  0.52871903  0.70820658  0.72797452    -0.16800
C722        C  0.53760120  0.71078884  0.75233270     0.07200
C723        C  0.53811637  0.71153594  0.78183334     0.09100
C724        C  0.52973709  0.71002537  0.80620495    -0.17700
C725        C  0.39185134  0.79451080  0.67004670    -0.16800
C726        C  0.41420559  0.78298018  0.66801685     0.07200
C727        C  0.43862843  0.76728678  0.66766301     0.09100
C728        C  0.45754621  0.75183707  0.66931734    -0.17700
C729        C  0.26385759  0.72115153  0.67162962    -0.16800
C730        C  0.24548769  0.68495833  0.67043030     0.07200
C731        C  0.22800795  0.64299539  0.67096196     0.09100
C732        C  0.21629925  0.60797272  0.67307703    -0.17700
C733        C  0.39704070  0.80179698  0.86435527    -0.16800
C734        C  0.42010162  0.79107698  0.86636595     0.07200
C735        C  0.44388183  0.77458411  0.86636341     0.09100
C736        C  0.46117351  0.75744748  0.86437764    -0.17700
C737        C  0.26827019  0.72284574  0.86220909    -0.16800
C738        C  0.24970650  0.68664420  0.86319854     0.07200
C739        C  0.23127792  0.64457844  0.86216393     0.09100
C740        C  0.21850521  0.60933465  0.85987259    -0.17700
C741        C  0.32621121  0.84636963  0.80582711    -0.16800
C742        C  0.32611225  0.85341435  0.78128438     0.07200
C743        C  0.32611250  0.85323210  0.75169718     0.09100
C744        C  0.32599483  0.84574891  0.72722303    -0.17700
C745        C  0.56501112  0.78102290  0.52317524    -0.11600
C746        C  0.56474554  0.80499788  0.50781648    -0.13200
C747        C  0.42543214  0.87380687  0.52394304    -0.11600
C748        C  0.45074516  0.87338375  0.51031547    -0.13200
C749        C  0.21180544  0.77272127  0.50612810    -0.11600
C750        C  0.23705331  0.79824156  0.52141372    -0.13200
C751        C  0.44398350  0.59273675  0.52343468    -0.11600
C752        C  0.41715085  0.56639916  0.50948628    -0.13200
C753        C  0.14193468  0.58444489  0.50546648    -0.11600
C754        C  0.14301805  0.55991856  0.51959190    -0.13200
C755        C  0.22819468  0.44470352  0.51069091    -0.11600
C756        C  0.20465358  0.44508349  0.52636485    -0.13200
C757        C  0.61019738  0.64192950  0.57846379    -0.11600
C758        C  0.62760255  0.62479384  0.57877108    -0.13200
C759        C  0.01817662  0.63425496  0.45692570    -0.11600
C760        C  0.98221807  0.61921109  0.45705675    -0.13200
C761        C  0.76769914  0.57857637  0.52685390    -0.11600
C762        C  0.79176196  0.57808094  0.51173185    -0.13200
C763        C  0.97798582  0.38835571  0.57629037    -0.11600
C764        C  0.01407139  0.40420513  0.57688746    -0.13200
C765        C  0.85901105  0.46464749  0.51239342    -0.11600
C766        C  0.85856617  0.43923331  0.52641451    -0.13200
C767        C  0.62172176  0.03215125  0.45731859    -0.11600
C768        C  0.60627156  0.99619276  0.45662656    -0.13200
C769        C  0.75685988  0.22521806  0.51005711    -0.11600
C770        C  0.78261304  0.25069778  0.52511212    -0.13200
C771        C  0.36321415  0.39537736  0.45924755    -0.11600
C772        C  0.38053301  0.37821252  0.45881197    -0.13200
C773        C  0.57683300  0.45848933  0.52469292    -0.11600
C774        C  0.54979702  0.43189210  0.51097374    -0.13200
C775        C  0.38804146  0.02562614  0.57782042    -0.11600
C776        C  0.37276824  0.98976446  0.57675234    -0.13200
C777        C  0.54164341  0.14868551  0.52089072    -0.11600
C778        C  0.56687353  0.14847542  0.50703827    -0.13200
C779        C  0.43131823  0.24299861  0.51231702    -0.11600
C780        C  0.43183954  0.21883440  0.52728314    -0.13200
C781        C  0.46436848  0.17685561  0.72869870    -0.16800
C782        C  0.45587002  0.17003568  0.75307654     0.07200
C783        C  0.45707511  0.17154736  0.78247934     0.09100
C784        C  0.46720678  0.18033452  0.80646846    -0.17700
C785        C  0.54271226  0.30474213  0.86230742    -0.16800
C786        C  0.56160010  0.34090371  0.86408681     0.07200
C787        C  0.58677311  0.38332249  0.86429246     0.09100
C788        C  0.61078966  0.41917613  0.86296723    -0.17700
C789        C  0.60624268  0.41456333  0.67486579    -0.16800
C790        C  0.58178352  0.37893167  0.67278876     0.07200
C791        C  0.55630318  0.33663118  0.67176039     0.09100
C792        C  0.53729274  0.30043571  0.67262229    -0.17700
C793        C  0.68789114  0.53966049  0.72930885    -0.16800
C794        C  0.69002057  0.54892951  0.75355536     0.07200
C795        C  0.69070401  0.55056819  0.78306738     0.09100
C796        C  0.68962959  0.54349248  0.80768187    -0.17700
C797        C  0.78092932  0.41034119  0.86157533    -0.16800
C798        C  0.76978805  0.43292775  0.86419813     0.07200
C799        C  0.75367028  0.45691094  0.86572882     0.09100
C800        C  0.73743102  0.47513159  0.86505575    -0.17700
C801        C  0.59250730  0.23170663  0.86053158    -0.16800
C802        C  0.62763082  0.24413742  0.86332002     0.07200
C803        C  0.66970398  0.26275237  0.86484042     0.09100
C804        C  0.70593011  0.28172538  0.86380977    -0.17700
C805        C  0.73424187  0.47072539  0.67021831    -0.16800
C806        C  0.75088020  0.45300184  0.66776805     0.07200
C807        C  0.76717182  0.42905872  0.66730740     0.09100
C808        C  0.77828627  0.40630762  0.66904394    -0.17700
C809        C  0.70273071  0.27807078  0.66915821    -0.16800
C810        C  0.66641410  0.25958051  0.66854239     0.07200
C811        C  0.62433108  0.24159499  0.67048967     0.09100
C812        C  0.58924786  0.22944187  0.67360618    -0.17700
C813        C  0.82486562  0.33704189  0.72727678    -0.16800
C814        C  0.83260361  0.33708785  0.75164093     0.07200
C815        C  0.83378235  0.33787273  0.78112953     0.09100
C816        C  0.82752555  0.33908029  0.80563495    -0.17700
loop_ 
_geom_bond_atom_site_label_1 
_geom_bond_atom_site_label_2 
_geom_bond_distance 
_geom_bond_site_symmetry_2 
_ccdc_geom_bond_type 
C1            C2   1.536       .  S
C1            C7   1.534       .  S
C1            C5   1.536       .  S
C1          C813   1.472       .  S
C2            H9   1.086       .  S
C2            C3   1.372       .  D
C3            C4   1.545       .  S
C3          C122   1.478       .  S
C4            C8   1.536       .  S
C4            C6   1.534       .  S
C4           H10   1.111       .  S
C5           H11   1.087       .  S
C5            C6   1.362       .  D
C6          C808   1.443       .  S
C7           H12   1.086       .  S
C7            C8   1.362       .  D
C8          C809   1.444       .  S
C13          C14   1.533       .  S
C13          C19   1.538       .  S
C13          C17   1.537       .  S
C13         C816   1.472       .  S
C14          H21   1.086       .  S
C14          C15   1.361       .  D
C15          C16   1.532       .  S
C15         C804   1.438       .  S
C16          C20   1.540       .  S
C16          C18   1.531       .  S
C16          H22   1.112       .  S
C17          H23   1.086       .  S
C17          C18   1.361       .  D
C18         C797   1.440       .  S
C19          H24   1.086       .  S
C19          C20   1.373       .  D
C20         C500   1.475       .  S
C25          C26   1.536       .  S
C25          C31   1.539       .  S
C25          C29   1.536       .  S
C25         C793   1.474       .  S
C26          H33   1.087       .  S
C26          C27   1.361       .  D
C27          C28   1.531       .  S
C27         C789   1.439       .  S
C28          C32   1.541       .  S
C28          C30   1.533       .  S
C28          H34   1.112       .  S
C29          H35   1.086       .  S
C29          C30   1.363       .  D
C30         C805   1.443       .  S
C31          H36   1.086       .  S
C31          C32   1.373       .  D
C32         C144   1.477       .  S
C37          C38   1.533       .  S
C37          C43   1.539       .  S
C37          C41   1.536       .  S
C37         C796   1.473       .  S
C38          H45   1.087       .  S
C38          C39   1.361       .  D
C39          C40   1.534       .  S
C39         C800   1.440       .  S
C40          C44   1.544       .  S
C40          C42   1.532       .  S
C40          H46   1.112       .  S
C41          H47   1.087       .  S
C41          C42   1.361       .  D
C42         C788   1.441       .  S
C43          H48   1.086       .  S
C43          C44   1.374       .  D
C44         C474   1.479       .  S
C49          C50   1.538       .  S
C49          C55   1.532       .  S
C49          C53   1.540       .  S
C49         C781   1.469       .  S
C50          H57   1.086       .  S
C50          C51   1.372       .  D
C51          C52   1.541       .  S
C51          C79   1.475       .  S
C52          C56   1.534       .  S
C52          C54   1.530       .  S
C52          H58   1.112       .  S
C53          H59   1.086       .  S
C53          C54   1.363       .  D
C54         C812   1.444       .  S
C55          H60   1.087       .  S
C55          C56   1.360       .  D
C56         C792   1.438       .  S
C61          C62   1.534       .  S
C61          C67   1.536       .  S
C61          C65   1.538       .  S
C61         C784   1.469       .  S
C62          H69   1.086       .  S
C62          C63   1.361       .  D
C63          C64   1.534       .  S
C63         C785   1.441       .  S
C64          C68   1.540       .  S
C64          C66   1.530       .  S
C64          H70   1.112       .  S
C65          H71   1.086       .  S
C65          C66   1.362       .  D
C66         C801   1.439       .  S
C67          H72   1.086       .  S
C67          C68   1.371       .  D
C68         C513   1.474       .  S
In73         O75   2.253       .  S
In73         O76   2.246       .  S
In73         O84   2.241       .  S
In73         O78   2.267       .  S
In73         O80   2.255       .  S
In73         O81   2.232       .  S
In73         O82   2.231       .  S
In73         O85   2.275       .  S
C74          O80   1.263       .  A
C74          O82   1.258       .  A
C74         C775   1.434       .  S
O75          C83   1.259       .  A
O76          C83   1.259       .  A
C77          O84   1.257       .  A
C77          O78   1.260       .  A
C77         C780   1.439       .  S
C79          O81   1.257       .  A
C79          O85   1.261       .  A
C83         C777   1.435       .  S
In86         O88   2.255       .  S
In86         O89   2.256       .  S
In86         O97   2.246       .  S
In86         O91   2.270       .  S
In86         O93   2.257       .  S
In86         O94   2.233       .  S
In86         O95   2.233       .  S
In86         O98   2.283       .  S
C87          O93   1.262       .  A
C87          O95   1.259       .  A
C87         C772   1.434       .  S
O88          C96   1.259       .  A
O89          C96   1.259       .  A
C90          O97   1.256       .  A
C90          O91   1.258       .  A
C90         C779   1.438       .  S
C92         C303   1.478       .  S
C92          O94   1.258       .  A
C92          O98   1.261       .  A
C96         C774   1.439       .  S
In99        O101   2.269       .  S
In99        O102   2.244       .  S
In99        O110   2.239       .  S
In99        O104   2.266       .  S
In99        O106   2.259       .  S
In99        O107   2.255       .  S
In99        O108   2.251       .  S
In99        O111   2.251       .  S
C100        O106   1.259       .  A
C100        O108   1.258       .  A
C100        C769   1.438       .  S
O101        C109   1.261       .  A
O102        C109   1.259       .  A
C103        O110   1.257       .  A
C103        O104   1.261       .  A
C103        C767   1.438       .  S
C105        O107   1.259       .  A
C105        O111   1.257       .  A
C105        C778   1.435       .  S
C109        C327   1.478       .  S
In112       O114   2.266       .  S
In112       O115   2.239       .  S
In112       O123   2.243       .  S
In112       O117   2.267       .  S
In112       O119   2.252       .  S
In112       O120   2.259       .  S
In112       O121   2.256       .  S
In112       O124   2.246       .  S
C113        O119   1.257       .  A
C113        O121   1.258       .  A
C113        C770   1.437       .  S
O114        C122   1.263       .  A
O115        C122   1.260       .  A
C116        O123   1.257       .  A
C116        O117   1.261       .  A
C116        C763   1.439       .  S
C118        O120   1.258       .  A
C118        O124   1.256       .  A
C118        C766   1.434       .  S
In125       O127   2.246       .  S
In125       O128   2.247       .  S
In125       O136   2.239       .  S
In125       O130   2.276       .  S
In125       O132   2.258       .  S
In125       O133   2.243       .  S
In125       O134   2.239       .  S
In125       O137   2.273       .  S
C126        O132   1.262       .  A
C126        O134   1.259       .  A
C126        C760   1.438       .  S
O127        C135   1.259       .  A
O128        C135   1.260       .  A
C129        O136   1.255       .  A
C129        O130   1.260       .  A
C129        C762   1.439       .  S
C131        C351   1.477       .  S
C131        O133   1.257       .  A
C131        O137   1.260       .  A
C135        C765   1.434       .  S
In138       O140   2.258       .  S
In138       O141   2.254       .  S
In138       O149   2.250       .  S
In138       O143   2.269       .  S
In138       O145   2.263       .  S
In138       O146   2.234       .  S
In138       O147   2.234       .  S
In138       O150   2.273       .  S
C139        O145   1.262       .  A
C139        O147   1.258       .  A
C139        C758   1.437       .  S
O140        C148   1.258       .  A
O141        C148   1.258       .  A
C142        O149   1.257       .  A
C142        O143   1.258       .  A
C142        C761   1.439       .  S
C144        O146   1.258       .  A
C144        O150   1.262       .  A
C148        C773   1.438       .  S
In151       O153   2.272       .  S
In151       O154   2.234       .  S
In151       O162   2.243       .  S
In151       O156   2.260       .  S
In151       O158   2.261       .  S
In151       O159   2.249       .  S
In151       O160   2.236       .  S
In151       O163   2.253       .  S
C152        O158   1.262       .  A
C152        O160   1.258       .  A
C152        C764   1.438       .  S
O153        C161   1.262       .  A
O154        C161   1.258       .  A
C155        O162   1.257       .  A
C155        O156   1.259       .  A
C155        C756   1.435       .  S
C157        O159   1.259       .  A
C157        O163   1.258       .  A
C157        C754   1.436       .  S
C161        C284   1.475       .  S
In164       O166   2.271       .  S
In164       O167   2.235       .  S
In164       O175   2.245       .  S
In164       O169   2.255       .  S
In164       O171   2.260       .  S
In164       O172   2.255       .  S
In164       O173   2.230       .  S
In164       O176   2.249       .  S
C165        O171   1.261       .  A
C165        O173   1.257       .  A
C165        C771   1.434       .  S
O166        C174   1.260       .  A
O167        C174   1.259       .  A
C168        O175   1.258       .  A
C168        O169   1.259       .  A
C168        C755   1.435       .  S
C170        O172   1.260       .  A
C170        O176   1.258       .  A
C170        C752   1.436       .  S
C174        C548   1.476       .  S
In177       O179   2.267       .  S
In177       O180   2.241       .  S
In177       O188   2.256       .  S
In177       O182   2.255       .  S
In177       O184   2.265       .  S
In177       O185   2.260       .  S
In177       O186   2.246       .  S
In177       O189   2.252       .  S
C178        O184   1.260       .  A
C178        O186   1.258       .  A
C178        C759   1.439       .  S
O179        C187   1.262       .  A
O180        C187   1.259       .  A
C181        O188   1.258       .  A
C181        O182   1.257       .  A
C181        C749   1.437       .  S
C183        O185   1.259       .  A
C183        O189   1.257       .  A
C183        C753   1.437       .  S
C187        C572   1.477       .  S
In190       O192   2.254       .  S
In190       O193   2.255       .  S
In190       O201   2.238       .  S
In190       O195   2.255       .  S
In190       O197   2.264       .  S
In190       O198   2.255       .  S
In190       O199   2.246       .  S
In190       O202   2.273       .  S
C191        O197   1.258       .  A
C191        O199   1.257       .  A
C191        C750   1.437       .  S
O192        C200   1.258       .  A
O193        C200   1.259       .  A
C194        O201   1.259       .  A
C194        O195   1.261       .  A
C194        C776   1.435       .  S
C196        C248   1.482       .  S
C196        O198   1.259       .  A
C196        O202   1.259       .  A
C200        C747   1.437       .  S
In203       O205   2.280       .  S
In203       O206   2.237       .  S
In203       O214   2.250       .  S
In203       O208   2.270       .  S
In203       O210   2.258       .  S
In203       O211   2.256       .  S
In203       O212   2.237       .  S
In203       O215   2.254       .  S
C204        O210   1.262       .  A
C204        O212   1.259       .  A
C204        C757   1.437       .  S
O205        C213   1.261       .  A
O206        C213   1.258       .  A
C207        O214   1.257       .  A
C207        O208   1.258       .  A
C207        C745   1.440       .  S
C209        O211   1.258       .  A
C209        O215   1.257       .  A
C209        C751   1.436       .  S
C213        C272   1.479       .  S
In216       O218   2.270       .  S
In216       O219   2.245       .  S
In216       O227   2.237       .  S
In216       O221   2.276       .  S
In216       O223   2.259       .  S
In216       O224   2.247       .  S
In216       O225   2.241       .  S
In216       O228   2.253       .  S
C217        O223   1.262       .  A
C217        O225   1.259       .  A
C217        C768   1.438       .  S
O218        C226   1.260       .  A
O219        C226   1.257       .  A
C220        O227   1.256       .  A
C220        O221   1.261       .  A
C220        C746   1.440       .  S
C222        O224   1.259       .  A
C222        O228   1.259       .  A
C222        C748   1.436       .  S
C226        C596   1.477       .  S
C229        C230   1.540       .  S
C229        C235   1.534       .  S
C229        C233   1.536       .  S
C229        C741   1.476       .  S
C230        H237   1.086       .  S
C230        C231   1.374       .  D
C231        C232   1.542       .  S
C231        C422   1.478       .  S
C232        C236   1.534       .  S
C232        C234   1.533       .  S
C232        H238   1.112       .  S
C233        H239   1.086       .  S
C233        C234   1.362       .  D
C234        C733   1.443       .  S
C235        H240   1.086       .  S
C235        C236   1.361       .  D
C236        C737   1.440       .  S
C241        C242   1.535       .  S
C241        C247   1.541       .  S
C241        C245   1.536       .  S
C241        C744   1.476       .  S
C242        H249   1.086       .  S
C242        C243   1.362       .  D
C243        C244   1.534       .  S
C243        C729   1.441       .  S
C244        C248   1.542       .  S
C244        C246   1.532       .  S
C244        H250   1.112       .  S
C245        H251   1.087       .  S
C245        C246   1.361       .  D
C246        C725   1.440       .  S
C247        H252   1.086       .  S
C247        C248   1.375       .  D
C253        C254   1.537       .  S
C253        C259   1.537       .  S
C253        C257   1.534       .  S
C253        C724   1.472       .  S
C254        H261   1.086       .  S
C254        C255   1.361       .  D
C255        C256   1.533       .  S
C255        C717   1.444       .  S
C256        C260   1.543       .  S
C256        C258   1.536       .  S
C256        H262   1.112       .  S
C257        H263   1.087       .  S
C257        C258   1.362       .  D
C258        C736   1.443       .  S
C259        H264   1.086       .  S
C259        C260   1.372       .  D
C260        C392   1.475       .  S
C265        C266   1.534       .  S
C265        C271   1.540       .  S
C265        C269   1.538       .  S
C265        C721   1.473       .  S
C266        H273   1.087       .  S
C266        C267   1.361       .  D
C267        C268   1.533       .  S
C267        C728   1.440       .  S
C268        C272   1.541       .  S
C268        C270   1.529       .  S
C268        H274   1.112       .  S
C269        H275   1.086       .  S
C269        C270   1.362       .  D
C270        C713   1.439       .  S
C271        H276   1.086       .  S
C271        C272   1.373       .  D
C277        C278   1.534       .  S
C277        C283   1.537       .  S
C277        C281   1.537       .  S
C277        C709   1.469       .  S
C278        H285   1.086       .  S
C278        C279   1.361       .  D
C279        C280   1.534       .  S
C279        C716   1.440       .  S
C280        C284   1.542       .  S
C280        C282   1.532       .  S
C280        H286   1.112       .  S
C281        H287   1.086       .  S
C281        C282   1.362       .  D
C282        C732   1.442       .  S
C283        H288   1.086       .  S
C283        C284   1.371       .  D
C289        C290   1.535       .  S
C289        C295   1.534       .  S
C289        C293   1.537       .  S
C289        C712   1.469       .  S
C290        H297   1.086       .  S
C290        C291   1.371       .  D
C291        C292   1.543       .  S
C291        C431   1.475       .  S
C292        C296   1.536       .  S
C292        C294   1.531       .  S
C292        H298   1.112       .  S
C293        H299   1.086       .  S
C293        C294   1.362       .  D
C294        C740   1.440       .  S
C295        H300   1.086       .  S
C295        C296   1.362       .  D
C296        C720   1.444       .  S
C301        C302   1.542       .  S
C301        C307   1.535       .  S
C301        C305   1.536       .  S
C301        C705   1.474       .  S
C302        H309   1.086       .  S
C302        C303   1.374       .  D
C303        C304   1.541       .  S
C304        C308   1.534       .  S
C304        C306   1.528       .  S
C304        H310   1.112       .  S
C305        H311   1.087       .  S
C305        C306   1.360       .  D
C306        C700   1.437       .  S
C307        H312   1.087       .  S
C307        C308   1.362       .  D
C308        C704   1.444       .  S
C313        C314   1.534       .  S
C313        C319   1.542       .  S
C313        C317   1.536       .  S
C313        C708   1.474       .  S
C314        H321   1.087       .  S
C314        C315   1.361       .  D
C315        C316   1.534       .  S
C315        C693   1.441       .  S
C316        C320   1.542       .  S
C316        C318   1.531       .  S
C316        H322   1.112       .  S
C317        H323   1.087       .  S
C317        C318   1.361       .  D
C318        C692   1.440       .  S
C319        H324   1.086       .  S
C319        C320   1.374       .  D
C320        C526   1.480       .  S
C325        C326   1.537       .  S
C325        C331   1.534       .  S
C325        C329   1.537       .  S
C325        C685   1.472       .  S
C326        H333   1.086       .  S
C326        C327   1.372       .  D
C327        C328   1.545       .  S
C328        C332   1.537       .  S
C328        C330   1.533       .  S
C328        H334   1.111       .  S
C329        H335   1.086       .  S
C329        C330   1.362       .  D
C330        C701   1.443       .  S
C331        H336   1.087       .  S
C331        C332   1.361       .  D
C332        C681   1.444       .  S
C337        C338   1.534       .  S
C337        C343   1.536       .  S
C337        C341   1.537       .  S
C337        C688   1.472       .  S
C338        H345   1.086       .  S
C338        C339   1.362       .  D
C339        C340   1.536       .  S
C339        C677   1.443       .  S
C340        C344   1.544       .  S
C340        C342   1.532       .  S
C340        H346   1.112       .  S
C341        H347   1.086       .  S
C341        C342   1.362       .  D
C342        C696   1.441       .  S
C343        H348   1.086       .  S
C343        C344   1.371       .  D
C344        C487   1.477       .  S
C349        C350   1.540       .  S
C349        C355   1.533       .  S
C349        C353   1.539       .  S
C349        C676   1.476       .  S
C350        H357   1.086       .  S
C350        C351   1.374       .  D
C351        C352   1.541       .  S
C352        C356   1.533       .  S
C352        C354   1.531       .  S
C352        H358   1.112       .  S
C353        H359   1.086       .  S
C353        C354   1.362       .  D
C354        C684   1.444       .  S
C355        H360   1.086       .  S
C355        C356   1.361       .  D
C356        C697   1.438       .  S
C361        C362   1.533       .  S
C361        C367   1.542       .  S
C361        C365   1.538       .  S
C361        C673   1.476       .  S
C362        H369   1.087       .  S
C362        C363   1.361       .  D
C363        C364   1.535       .  S
C363        C689   1.440       .  S
C364        C368   1.542       .  S
C364        C366   1.531       .  S
C364        H370   1.112       .  S
C365        H371   1.086       .  S
C365        C366   1.362       .  D
C366        C680   1.443       .  S
C367        H372   1.086       .  S
C367        C368   1.375       .  D
C368        C461   1.481       .  S
In373       O375   2.254       .  S
In373       O376   2.247       .  S
In373       O384   2.241       .  S
In373       O378   2.268       .  S
In373       O380   2.260       .  S
In373       O381   2.238       .  S
In373       O382   2.233       .  S
In373       O385   2.271       .  S
C374        O380   1.262       .  A
C374        O382   1.258       .  A
C374        C667   1.436   1_565  S
O375        C383   1.259       .  A
O376        C383   1.259       .  A
C377        O384   1.257       .  A
C377        O378   1.260       .  A
C377        C670   1.438       .  S
C379        C579   1.476       .  S
C379        O381   1.258       .  A
C379        O385   1.261       .  A
C383        C671   1.435       .  S
In386       O388   2.254   1_556  S
In386       O389   2.251       .  S
In386       O397   2.249       .  S
In386       O391   2.265       .  S
In386       O393   2.264       .  S
In386       O394   2.235       .  S
In386       O395   2.233       .  S
In386       O398   2.269       .  S
C387        O393   1.262       .  A
C387        O395   1.257       .  A
C387        C663   1.436       .  S
O388        C396   1.259   1_554  A
O389        C396   1.258       .  A
C390        O397   1.257       .  A
C390        O391   1.259       .  A
C390        C669   1.439   1_556  S
C392        O394   1.258       .  A
C392        O398   1.261       .  A
C396        C665   1.436   1_556  S
In399       O401   2.255       .  S
In399       O402   2.246       .  S
In399       O410   2.232       .  S
In399       O404   2.258       .  S
In399       O406   2.253       .  S
In399       O407   2.247       .  S
In399       O408   2.244       .  S
In399       O411   2.243       .  S
C400        O406   1.259       .  A
C400        O408   1.258       .  A
C400        C662   1.434       .  S
O401        C409   1.261       .  A
O402        C409   1.259       .  A
C403        O410   1.257       .  A
C403        O404   1.261       .  A
C403        C657   1.433       .  S
C405        O407   1.258       .  A
C405        O411   1.257       .  A
C405        C660   1.429       .  S
C409        C560   1.475       .  S
In412       O414   2.269       .  S
In412       O415   2.240       .  S
In412       O423   2.235       .  S
In412       O417   2.257       .  S
In412       O419   2.256       .  S
In412       O420   2.256       .  S
In412       O421   2.243       .  S
In412       O424   2.250   1_556  S
C413        O419   1.258       .  A
C413        O421   1.258       .  A
C413        C661   1.434   1_556  S
O414        C422   1.261       .  A
O415        C422   1.259       .  A
C416        O423   1.258       .  A
C416        O417   1.260       .  A
C416        C656   1.434       .  S
C418        O420   1.258       .  A
C418        O424   1.257   1_556  A
C418        C672   1.435   1_556  S
In425       O427   2.245   1_556  S
In425       O428   2.240       .  S
In425       O436   2.249       .  S
In425       O430   2.272       .  S
In425       O432   2.261       .  S
In425       O433   2.241       .  S
In425       O434   2.237       .  S
In425       O437   2.265       .  S
C426        O432   1.263       .  A
C426        O434   1.258       .  A
C426        C652   1.438       .  S
O427        C435   1.258   1_554  A
O428        C435   1.258       .  A
C429        O436   1.257       .  A
C429        O430   1.260       .  A
C429        C653   1.443   1_556  S
C431        O433   1.258       .  A
C431        O437   1.261       .  A
C435        C659   1.429   1_556  S
In438       O440   2.257       .  S
In438       O441   2.250       .  S
In438       O449   2.251       .  S
In438       O443   2.275       .  S
In438       O445   2.265       .  S
In438       O446   2.241       .  S
In438       O447   2.236       .  S
In438       O450   2.281       .  S
C439        O445   1.262       .  A
C439        O447   1.258       .  A
C439        C649   1.439       .  S
O440        C448   1.259       .  A
O441        C448   1.258       .  A
C442        O449   1.257       .  A
C442        O443   1.259       .  A
C442        C654   1.443       .  S
C444        C536   1.478       .  S
C444        O446   1.257       .  A
C444        O450   1.260       .  A
C448        C666   1.436       .  S
In451       O453   2.279       .  S
In451       O454   2.245       .  S
In451       O462   2.232       .  S
In451       O456   2.271       .  S
In451       O458   2.253       .  S
In451       O459   2.253       .  S
In451       O460   2.234       .  S
In451       O463   2.263       .  S
C452        O458   1.261       .  A
C452        O460   1.259       .  A
C452        C658   1.433       .  S
O453        C461   1.261       .  A
O454        C461   1.259       .  A
C455        O462   1.256       .  A
C455        O456   1.261       .  A
C455        C648   1.437       .  S
C457        O459   1.260       .  A
C457        O463   1.259       .  A
C457        C645   1.442       .  S
In464       O466   2.275       .  S
In464       O467   2.242       .  S
In464       O475   2.244       .  S
In464       O469   2.266       .  S
In464       O471   2.262       .  S
In464       O472   2.249       .  S
In464       O473   2.236       .  S
In464       O476   2.251   1_556  S
C465        O471   1.262       .  A
C465        O473   1.258       .  A
C465        C664   1.437       .  S
O466        C474   1.261       .  A
O467        C474   1.258       .  A
C468        O475   1.257       .  A
C468        O469   1.259       .  A
C468        C647   1.437   1_556  S
C470        O472   1.259       .  A
C470        O476   1.258   1_556  A
C470        C643   1.434   1_556  S
In477       O479   2.269       .  S
In477       O480   2.242       .  S
In477       O488   2.248       .  S
In477       O482   2.260       .  S
In477       O484   2.262       .  S
In477       O485   2.252       .  S
In477       O486   2.235       .  S
In477       O489   2.250       .  S
C478        O484   1.261       .  A
C478        O486   1.258       .  A
C478        C668   1.436       .  S
O479        C487   1.262       .  A
O480        C487   1.258       .  A
C481        O488   1.257       .  A
C481        O482   1.258       .  A
C481        C642   1.437       .  S
C483        O485   1.258       .  A
C483        O489   1.257       .  A
C483        C639   1.433       .  S
In490       O492   2.267       .  S
In490       O493   2.238       .  S
In490       O501   2.254       .  S
In490       O495   2.262       .  S
In490       O497   2.263       .  S
In490       O498   2.264       .  S
In490       O499   2.239       .  S
In490       O502   2.257   1_556  S
C491        O497   1.261       .  A
C491        O499   1.259       .  A
C491        C651   1.438       .  S
O492        C500   1.261       .  A
O493        C500   1.259       .  A
C494        O501   1.257       .  A
C494        O495   1.258       .  A
C494        C641   1.438   1_556  S
C496        O498   1.259       .  A
C496        O502   1.258   1_556  A
C496        C646   1.442   1_556  S
In503       O505   2.270       .  S
In503       O506   2.237       .  S
In503       O514   2.242       .  S
In503       O508   2.270       .  S
In503       O510   2.256       .  S
In503       O511   2.242       .  S
In503       O512   2.229       .  S
In503       O515   2.247   1_556  S
C504        O510   1.262       .  A
C504        O512   1.258       .  A
C504        C655   1.433       .  S
O505        C513   1.260       .  A
O506        C513   1.257       .  A
C507        O514   1.257       .  A
C507        O508   1.260       .  A
C507        C638   1.440   1_556  S
C509        O511   1.259       .  A
C509        O515   1.260   1_556  A
C509        C640   1.433   1_556  S
In516       O518   2.286       .  S
In516       O519   2.236       .  S
In516       O527   2.248       .  S
In516       O521   2.271       .  S
In516       O523   2.266       .  S
In516       O524   2.251       .  S
In516       O525   2.239       .  S
In516       O528   2.251       .  S
C517        O523   1.263       .  A
C517        O525   1.258       .  A
C517        C650   1.439       .  S
O518        C526   1.261       .  A
O519        C526   1.257       .  A
C520        O527   1.256       .  A
C520        O521   1.259       .  A
C520        C637   1.440       .  S
C522        O524   1.259       .  A
C522        O528   1.259       .  A
C522        C644   1.435       .  S
C529        C530   1.538       .  S
C529        C535   1.541       .  S
C529        C533   1.534       .  S
C529        C633   1.475       .  S
C530        H537   1.086       .  S
C530        C531   1.362       .  D
C531        C532   1.531       .  S
C531        C625   1.442       .  S
C532        C536   1.540       .  S
C532        C534   1.532       .  S
C532        H538   1.112       .  S
C533        H539   1.087       .  S
C533        C534   1.361       .  D
C534        C629   1.439       .  S
C535        H540   1.086       .  S
C535        C536   1.374       .  D
C541        C542   1.533       .  S
C541        C547   1.541       .  S
C541        C545   1.536       .  S
C541        C636   1.473       .  S
C542        H549   1.087       .  S
C542        C543   1.361       .  D
C543        C544   1.533       .  S
C543        C621   1.439       .  S
C544        C548   1.540       .  S
C544        C546   1.530       .  S
C544        H550   1.112       .  S
C545        H551   1.086       .  S
C545        C546   1.360       .  D
C546        C620   1.440       .  S
C547        H552   1.086       .  S
C547        C548   1.375       .  D
C553        C554   1.535       .  S
C553        C559   1.534       .  S
C553        C557   1.533       .  S
C553        C616   1.470       .  S
C554        H561   1.086       .  S
C554        C555   1.362       .  D
C555        C556   1.534       .  S
C555        C632   1.440       .  S
C556        C560   1.544       .  S
C556        C558   1.537       .  S
C556        H562   1.112       .  S
C557        H563   1.087       .  S
C557        C558   1.361       .  D
C558        C612   1.444       .  S
C559        H564   1.086       .  S
C559        C560   1.371       .  D
C565        C566   1.534       .  S
C565        C571   1.536       .  S
C565        C569   1.536       .  S
C565        C613   1.470       .  S
C566        H573   1.086       .  S
C566        C567   1.362       .  D
C567        C568   1.535       .  S
C567        C605   1.442       .  S
C568        C572   1.543       .  S
C568        C570   1.532       .  S
C568        H574   1.112       .  S
C569        H575   1.086       .  S
C569        C570   1.362       .  D
C570        C624   1.439       .  S
C571        H576   1.086       .  S
C571        C572   1.371       .  D
C577        C578   1.538       .  S
C577        C583   1.534       .  S
C577        C581   1.539       .  S
C577        C601   1.473       .  S
C578        H585   1.086       .  S
C578        C579   1.373       .  D
C579        C580   1.542       .  S
C580        C584   1.534       .  S
C580        C582   1.531       .  S
C580        H586   1.112       .  S
C581        H587   1.086       .  S
C581        C582   1.363       .  D
C582        C609   1.444       .  S
C583        H588   1.087       .  S
C583        C584   1.361       .  D
C584        C628   1.441       .  S
C589        C590   1.534       .  S
C589        C595   1.538       .  S
C589        C593   1.538       .  S
C589        C604   1.473       .  S
C590        H597   1.086       .  S
C590        C591   1.362       .  D
C591        C592   1.535       .  S
C591        C617   1.441       .  S
C592        C596   1.541       .  S
C592        C594   1.531       .  S
C592        H598   1.112       .  S
C593        H599   1.086       .  S
C593        C594   1.362       .  D
C594        C608   1.442       .  S
C595        H600   1.086       .  S
C595        C596   1.372       .  D
C601        C602   1.209       .  T
C602        C603   1.416       .  S
C603        C604   1.209       .  T
C605        C606   1.206       .  T
C606        C607   1.412       .  S
C607        C608   1.206       .  T
C609        C610   1.207       .  T
C610        C611   1.415       .  S
C611        C612   1.207       .  T
C613        C614   1.207       .  T
C614        C615   1.413       .  S
C615        C616   1.207       .  T
C617        C618   1.205       .  T
C618        C619   1.411       .  S
C619        C620   1.205       .  T
C621        C622   1.204       .  T
C622        C623   1.410       .  S
C623        C624   1.204       .  T
C625        C626   1.206       .  T
C626        C627   1.412       .  S
C627        C628   1.205       .  T
C629        C630   1.204       .  T
C630        C631   1.409       .  S
C631        C632   1.204       .  T
C633        C634   1.210       .  T
C634        C635   1.418       .  S
C635        C636   1.209       .  T
C637        C638   1.209       .  T
C639        C640   1.204       .  T
C641        C642   1.207       .  T
C643        C644   1.205       .  T
C645        C646   1.210       .  T
C647        C648   1.207       .  T
C649        C650   1.208       .  T
C651        C652   1.207   1_655  T
C653        C654   1.210       .  T
C655        C656   1.205   1_545  T
C657        C658   1.205   1_455  T
C659        C660   1.202       .  T
C661        C662   1.205       .  T
C663        C664   1.206       .  T
C665        C666   1.206       .  T
C667        C668   1.206       .  T
C669        C670   1.208       .  T
C671        C672   1.206       .  T
C673        C674   1.211       .  T
C674        C675   1.419       .  S
C675        C676   1.210       .  T
C677        C678   1.206       .  T
C678        C679   1.413       .  S
C679        C680   1.206       .  T
C681        C682   1.207       .  T
C682        C683   1.414       .  S
C683        C684   1.207       .  T
C685        C686   1.208       .  T
C686        C687   1.415       .  S
C687        C688   1.208       .  T
C689        C690   1.205       .  T
C690        C691   1.410       .  S
C691        C692   1.205       .  T
C693        C694   1.205       .  T
C694        C695   1.411       .  S
C695        C696   1.205       .  T
C697        C698   1.203       .  T
C698        C699   1.407       .  S
C699        C700   1.203       .  T
C701        C702   1.207       .  T
C702        C703   1.414       .  S
C703        C704   1.207       .  T
C705        C706   1.210       .  T
C706        C707   1.418       .  S
C707        C708   1.210       .  T
C709        C710   1.206       .  T
C710        C711   1.412       .  S
C711        C712   1.206       .  T
C713        C714   1.204       .  T
C714        C715   1.410       .  S
C715        C716   1.204       .  T
C717        C718   1.207       .  T
C718        C719   1.414       .  S
C719        C720   1.207       .  T
C721        C722   1.209       .  T
C722        C723   1.416       .  S
C723        C724   1.208       .  T
C725        C726   1.205       .  T
C726        C727   1.411       .  S
C727        C728   1.205       .  T
C729        C730   1.205       .  T
C730        C731   1.412       .  S
C731        C732   1.205       .  T
C733        C734   1.206       .  T
C734        C735   1.413       .  S
C735        C736   1.207       .  T
C737        C738   1.205       .  T
C738        C739   1.411       .  S
C739        C740   1.205       .  T
C741        C742   1.211       .  T
C742        C743   1.420       .  S
C743        C744   1.211       .  T
C745        C746   1.209       .  T
C747        C748   1.206       .  T
C749        C750   1.207       .  T
C751        C752   1.206       .  T
C753        C754   1.207       .  T
C755        C756   1.206       .  T
C757        C758   1.207       .  T
C759        C760   1.207   1_455  T
C761        C762   1.208       .  T
C763        C764   1.208   1_655  T
C765        C766   1.205       .  T
C767        C768   1.207   1_545  T
C769        C770   1.207       .  T
C771        C772   1.205       .  T
C773        C774   1.208       .  T
C775        C776   1.205   1_545  T
C777        C778   1.206       .  T
C779        C780   1.208       .  T
C781        C782   1.206       .  T
C782        C783   1.412       .  S
C783        C784   1.206       .  T
C785        C786   1.205       .  T
C786        C787   1.411       .  S
C787        C788   1.205       .  T
C789        C790   1.204       .  T
C790        C791   1.409       .  S
C791        C792   1.204       .  T
C793        C794   1.209       .  T
C794        C795   1.417       .  S
C795        C796   1.209       .  T
C797        C798   1.205       .  T
C798        C799   1.411       .  S
C799        C800   1.205       .  T
C801        C802   1.204       .  T
C802        C803   1.409       .  S
C803        C804   1.204       .  T
C805        C806   1.206       .  T
C806        C807   1.413       .  S
C807        C808   1.206       .  T
C809        C810   1.207       .  T
C810        C811   1.414       .  S
C811        C812   1.207       .  T
C813        C814   1.208       .  T
C814        C815   1.415       .  S
C815        C816   1.208       .  T
