geometry optimzed in LAMMPS
_audit_creation_date              2020-11-30 
_audit_creation_method            'lammps2cif' 
_symmetry_space_group_name_H-M    'P1' 
_symmetry_Int_Tables_number       1 
_symmetry_cell_setting            triclinic 
loop_ 
_symmetry_equiv_pos_as_xyz 
  x,y,z 
_cell_length_a                    25.2534926 
_cell_length_b                    25.273267990185005 
_cell_length_c                    25.250069321566965 
_cell_angle_alpha                 89.1667513702225 
_cell_angle_beta                  90.00488412844805 
_cell_angle_gamma                 90.95640380369673 
loop_ 
_atom_site_label 
_atom_site_type_symbol 
_atom_site_fract_x 
_atom_site_fract_y 
_atom_site_fract_z 
_atom_site_charge 
C1          C  0.55538360  0.28458113  0.11514568     0.81200
N2          N  0.51649868  0.28320919  0.15239011    -0.77100
C3          C  0.46602587  0.26973843  0.13855011     0.83600
N4          N  0.45513976  0.25569898  0.08774855    -0.77100
C5          C  0.49432097  0.25603135  0.05062055     0.83700
N6          N  0.54406527  0.27108095  0.06454188    -0.78800
C7          C  0.38567618  0.16999708  0.39106326     0.81200
N8          N  0.37236252  0.11948172  0.37828547    -0.77100
C9          C  0.36081995  0.10647091  0.32756290     0.83600
N10         N  0.36388874  0.14477703  0.28910005    -0.77100
C11         C  0.37727839  0.19557344  0.30129975     0.83700
N12         N  0.38759717  0.20829631  0.35258679    -0.78800
C13         C  0.27494712  0.44111708  0.22494498     0.81200
N14         N  0.31379908  0.40442236  0.22674301    -0.77100
C15         C  0.30398842  0.35451023  0.20898593     0.83600
N16         N  0.25548190  0.34161097  0.18889650    -0.77100
C17         C  0.21664842  0.37824040  0.18629314     0.83700
N18         N  0.22686165  0.42754860  0.20461363    -0.78800
C19         C  0.42323642  0.27132211  0.17830485     0.04100
C20         C  0.38487988  0.31086006  0.17493364    -0.12100
C21         C  0.34490745  0.31373855  0.21336949     0.01600
C22         C  0.34314664  0.27649373  0.25528524    -0.10600
C23         C  0.38087373  0.23632894  0.25875263     0.04100
C24         C  0.42098296  0.23407396  0.22020810    -0.10000
H25         H  0.38628387  0.33952798  0.14254795     0.09700
H26         H  0.31192937  0.27821974  0.28461617     0.07200
H27         H  0.45027128  0.20327114  0.22270363     0.07000
O28         O  0.65939652  0.62952506  0.59765545    -0.80800
C29         C  0.88065697  0.61792402  0.62408660     0.98500
O30         O  0.84772310  0.58178615  0.63793809    -0.70000
O31         O  0.77862917  0.62777846  0.69751178    -0.73600
Al32       Al  0.77003324  0.58385946  0.64019314     1.49000
C33         C  0.74714789  0.66236932  0.71274372     0.93800
O34         O  0.75643489  0.74069267  0.61270269    -0.79800
O35         O  0.75926588  0.64423191  0.49259072    -0.73300
Al36       Al  0.71101265  0.68303028  0.60430286     1.90100
O37         O  0.80843544  0.72710132  0.54516744    -0.72400
O38         O  0.82365122  0.57346765  0.53453845    -0.72300
O39         O  0.86662940  0.65544737  0.59428147    -0.77900
O40         O  0.76303145  0.53525720  0.58490157    -0.76100
O41         O  0.76369192  0.63869655  0.59641767    -1.12300
O42         O  0.69396043  0.57424131  0.65441848    -0.71400
C43         C  0.65343767  0.59316941  0.63163127     0.99300
C44         C  0.78968563  0.75773026  0.57965396     0.95700
Al45       Al  0.81076309  0.64921638  0.54544791     1.55600
O46         O  0.71111584  0.67948287  0.68204878    -0.76100
C47         C  0.79858545  0.53183893  0.55009296     0.99800
C48         C  0.72033041  0.67432277  0.48755528     0.94700
O49         O  0.70134420  0.69673760  0.52807225    -0.81400
C50         C  0.26617512  0.75459939  0.89787891     0.81200
N51         N  0.26651021  0.71813853  0.85891239    -0.77100
C52         C  0.28086796  0.73277705  0.80885628     0.83600
N53         N  0.29624953  0.78370074  0.79826621    -0.77100
C54         C  0.29682000  0.82019903  0.83741141     0.83700
N55         N  0.28128106  0.80543903  0.88700815    -0.78800
C56         C  0.37340610  0.48319437  0.73095808     0.81200
N57         N  0.42415011  0.49514680  0.71713654    -0.77100
C58         C  0.43908479  0.54557301  0.70463888     0.83600
N59         N  0.40256772  0.58455312  0.70696179    -0.77100
C60         C  0.35155369  0.57296744  0.72089303     0.83700
N61         N  0.33683006  0.52200077  0.73219109    -0.78800
C62         C  0.10292807  0.64663948  0.62301442     0.81200
N63         N  0.11518649  0.66206539  0.57269859    -0.77100
C64         C  0.16517038  0.67801610  0.55974739     0.83600
N65         N  0.20348438  0.67726716  0.59763423    -0.77100
C66         C  0.19170106  0.66160465  0.64811036     0.83700
N67         N  0.14114393  0.64693797  0.66096524    -0.78800
C68         C  0.27833853  0.69387597  0.76606504     0.04100
C69         C  0.31564396  0.65337532  0.76351491    -0.12100
C70         C  0.31236880  0.61546467  0.72344263     0.01600
C71         C  0.27146430  0.61830040  0.68588905    -0.10600
C72         C  0.23407243  0.65874271  0.68808175     0.04100
C73         C  0.23765014  0.69644653  0.72823632    -0.10000
H74         H  0.34696764  0.65121338  0.79277479     0.09700
H75         H  0.26881569  0.58912242  0.65485529     0.07200
H76         H  0.20876937  0.72758773  0.73014414     0.07000
O77         O  0.40868284  0.14670115  0.83745396    -0.80800
C78         C  0.41128692  0.16986249  0.61466618     0.98500
O79         O  0.44651810  0.18800989  0.64559119    -0.70000
O80         O  0.39937074  0.24669407  0.71578644    -0.73600
Al81       Al  0.44753029  0.19131722  0.72286731     1.49000
C82         C  0.36888698  0.26069367  0.75215856     0.93800
O83         O  0.29321312  0.15626628  0.74473114    -0.79800
O84         O  0.39510307  0.03964022  0.74382541    -0.73300
Al85       Al  0.35277338  0.15085784  0.78847767     1.90100
O86         O  0.30953898  0.08777399  0.69509035    -0.72400
O87         O  0.46260235  0.08312495  0.67463519    -0.72300
O88         O  0.37712501  0.13688010  0.63122829    -0.77900
O89         O  0.50038690  0.13989227  0.72810234    -0.76100
O90         O  0.39588489  0.14415187  0.73379526    -1.12300
O91         O  0.45989701  0.20584544  0.79805700    -0.71400
C92         C  0.44473958  0.18162067  0.84005051     0.99300
C93         C  0.27759582  0.12138493  0.71308846     0.95700
Al94       Al  0.38694413  0.09097095  0.68972389     1.55600
O95         O  0.35440391  0.22821365  0.78833837    -0.76100
C96         C  0.50414749  0.10207449  0.69638737     0.99800
C97         C  0.36379160  0.03459578  0.78247511     0.94700
O98         O  0.34082144  0.07501300  0.80026207    -0.81400
C99         C  0.05282416  0.13413405  0.70979269     0.81200
N100        N  0.01726471  0.13649723  0.66935090    -0.77100
C101        C  0.96575540  0.14757455  0.67966690     0.83600
N102        N  0.95051208  0.15770626  0.73008904    -0.77100
C103        C  0.98614164  0.15698203  0.77046441     0.83700
N104        N  0.03718420  0.14485592  0.75987829    -0.78800
C105        C  0.89954724  0.26183779  0.43095685     0.81200
N106        N  0.88549676  0.31134217  0.44506474    -0.77100
C107        C  0.87106680  0.32196780  0.49546846     0.83600
N108        N  0.87147211  0.28223470  0.53249414    -0.77100
C109        C  0.88550981  0.23243288  0.51896609     0.83700
N110        N  0.89888679  0.22215659  0.46796398    -0.78800
C111        C  0.77634062  0.98087425  0.59850219     0.81200
N112        N  0.81397906  0.01947409  0.59298827    -0.77100
C113        C  0.80199654  0.07069047  0.60236544     0.83600
N114        N  0.75241185  0.08302409  0.61873019    -0.77100
C115        C  0.71450240  0.04441485  0.62501929     0.83700
N116        N  0.72688443  0.99338007  0.61487297    -0.78800
C117        C  0.92590978  0.14801134  0.63703059     0.04100
C118        C  0.92639878  0.18779546  0.59753883    -0.12100
C119        C  0.88576363  0.18974396  0.55942826     0.01600
C120        C  0.84470114  0.15145270  0.56094244    -0.10600
C121        C  0.84425363  0.11148294  0.60019466     0.04100
C122        C  0.88484241  0.11004914  0.63801223    -0.10000
H123        H  0.95771215  0.21768274  0.59704041     0.09700
H124        H  0.81323614  0.15280646  0.53177356     0.07200
H125        H  0.88416980  0.07956469  0.66868049     0.07000
O126        O  0.89425785  0.26306716  0.98503715    -0.80800
C127        C  0.91898065  0.25032868  0.20739573     0.98500
O128        O  0.95070919  0.23066424  0.17432690    -0.70000
O129        O  0.89812488  0.16903696  0.11021729    -0.73600
Al130      Al  0.94541857  0.22505460  0.09730978     1.49000
C131        C  0.86258847  0.15285290  0.07932870     0.93800
O132        O  0.78934739  0.25714321  0.09065027    -0.79800
O133        O  0.89518495  0.37330860  0.07547258    -0.73300
Al134      Al  0.84417840  0.26107942  0.04025642     1.90100
O135        O  0.81265803  0.32888525  0.13315537    -0.72400
O136        O  0.96543228  0.33404473  0.14138302    -0.72300
O137        O  0.88342730  0.28140666  0.19245367    -0.77900
O138        O  0.99884986  0.27769638  0.08616443    -0.76100
O139        O  0.89325822  0.27046901  0.08965603    -1.12300
O140        O  0.95040084  0.20875650  0.02217512    -0.71400
C141        C  0.93038731  0.22956183  0.98079607     0.99300
C142        C  0.77780295  0.29498620  0.11999547     0.95700
Al143      Al  0.88956445  0.32511268  0.13218330     1.55600
O144        O  0.84397733  0.18340735  0.04379963    -0.76100
C145        C  0.00514288  0.31593898  0.11726035     0.99800
C146        C  0.85883364  0.37828437  0.04179847     0.94700
O147        O  0.83295123  0.33739712  0.02682460    -0.81400
C148        C  0.86964723  0.93097113  0.10616269     0.81200
N149        N  0.83383267  0.89046555  0.10312025    -0.77100
C150        C  0.84899560  0.83999569  0.11344790     0.84400
N151        N  0.90004605  0.83039607  0.12758965    -0.77100
C152        C  0.93611629  0.87096419  0.13139715     0.83700
N153        N  0.92041626  0.92112459  0.12067643    -0.78800
C154        C  0.59690368  0.75740440  0.20717241     0.81200
N155        N  0.63621031  0.75999487  0.17043020    -0.77100
C156        C  0.68673138  0.74868351  0.18467256     0.83600
N157        N  0.69754656  0.73413745  0.23544519    -0.77100
C158        C  0.65834620  0.73057137  0.27234814     0.83700
N159        N  0.60807705  0.74274108  0.25795943    -0.78800
C160        C  0.76862544  0.66018513  0.93409629     0.81200
N161        N  0.78058223  0.60898928  0.94499425    -0.77100
C162        C  0.78952036  0.59247976  0.99545558     0.83600
N163        N  0.78663665  0.62809840  0.03529965    -0.77100
C164        C  0.77516555  0.67958839  0.02456989     0.83700
N165        N  0.76653458  0.69568006  0.97378453    -0.78800
C166        C  0.77343962  0.71813664  0.06755720     0.04100
C167        C  0.81194050  0.75883941  0.07060163    -0.12100
C168        C  0.80960434  0.79628182  0.11109092     0.01600
C169        C  0.76840947  0.79277627  0.14844744    -0.10600
C170        C  0.72976407  0.75228863  0.14546754     0.04100
C171        C  0.73255308  0.71500417  0.10506147    -0.10000
H172        H  0.84325338  0.76157271  0.04143949     0.09700
H173        H  0.76624570  0.82173266  0.17968479     0.07200
H174        H  0.70273143  0.68370654  0.10264544     0.07000
O175        O  0.15711193  0.78894835  0.23398629    -0.80800
C176        C  0.37790764  0.79686207  0.20420583     0.98500
O177        O  0.34681283  0.83193451  0.18646558    -0.70000
O178        O  0.27470192  0.78222047  0.13108628    -0.73600
Al179      Al  0.26892001  0.83106255  0.18548817     1.49000
C180        C  0.23901367  0.74966259  0.11839475     0.93800
O181        O  0.25157608  0.67726124  0.22340094    -0.79800
O182        O  0.25466415  0.78115247  0.33883783    -0.73300
Al183      Al  0.20688418  0.73500187  0.22911062     1.90100
O184        O  0.30297379  0.69598724  0.29097406    -0.72400
O185        O  0.32123599  0.85046789  0.29223028    -0.72300
O186        O  0.36284426  0.76452756  0.23943541    -0.77900
O187        O  0.26494120  0.88471672  0.23584917    -0.76100
O188        O  0.26076994  0.78017769  0.23390433    -1.12300
O189        O  0.19228533  0.84064456  0.17281522    -0.71400
C190        C  0.15167870  0.82378031  0.19836447     0.99300
C191        C  0.28302828  0.66268469  0.25906095     0.95700
Al192      Al  0.30690708  0.77381777  0.28628507     1.55600
O193        O  0.20382764  0.73493174  0.15157280    -0.76100
C194        C  0.29802505  0.89071455  0.27268799     0.99800
C195        C  0.21753717  0.74773521  0.34527008     0.94700
O196        O  0.19851083  0.72389003  0.30539963    -0.81400
C197        C  0.46994117  0.83350387  0.20138742     0.24500
C198        C  0.43355864  0.79345235  0.18745288    -0.23600
C199        C  0.45254318  0.74391193  0.17210528     0.19500
C200        C  0.50667818  0.73319218  0.17475708     0.24500
C201        C  0.54244306  0.77182801  0.19304213    -0.23500
C202        C  0.52414382  0.82259465  0.20441857     0.19400
F203        F  0.55837532  0.86031940  0.22220653    -0.13500
F204        F  0.45254224  0.88112932  0.21766159    -0.15800
F205        F  0.52361567  0.68390340  0.16346117    -0.15800
F206        F  0.41798556  0.70450514  0.15888732    -0.13500
C207        C  0.00122303  0.82027324  0.18648031     0.24500
C208        C  0.99136349  0.86104473  0.14962054    -0.23600
C209        C  0.03459706  0.89249726  0.13140819     0.19500
C210        C  0.08665504  0.88177124  0.14801047     0.24500
C211        C  0.09659644  0.84002238  0.18408986    -0.23500
C212        C  0.05272320  0.81013410  0.20373866     0.19400
F213        F  0.05929107  0.76962448  0.23892696    -0.13500
F214        F  0.96072039  0.79032471  0.20676401    -0.15800
F215        F  0.12721298  0.91199540  0.12832087    -0.15800
F216        F  0.02677150  0.93270412  0.09618358    -0.13500
C217        C  0.84838842  0.00824248  0.04711984     0.24500
C218        C  0.85333477  0.98608562  0.09825078    -0.23600
C219        C  0.84989714  0.01873985  0.14236441     0.19500
C220        C  0.84602171  0.07336848  0.13559876     0.24500
C221        C  0.84684228  0.09648180  0.08454264    -0.23500
C222        C  0.84528423  0.06341124  0.04020046     0.19400
F223        F  0.84632857  0.08453888  0.99046361    -0.13500
F224        F  0.85107901  0.97694204  0.00400110    -0.15800
F225        F  0.84573473  0.10424528  0.17913678    -0.15800
F226        F  0.85384205  0.99795696  0.19208609    -0.13500
C227        C  0.80563881  0.44284466  0.98592108     0.24500
C228        C  0.84353962  0.43311318  0.02569771    -0.23600
C229        C  0.86342307  0.47670924  0.05465853     0.19500
C230        C  0.84506412  0.52774988  0.04524044     0.24500
C231        C  0.80696171  0.53742985  0.00605274    -0.23500
C232        C  0.78793000  0.49454918  0.97586204     0.19400
F233        F  0.75102835  0.50239492  0.93756078    -0.13500
F234        F  0.78527357  0.40243142  0.95706338    -0.15800
F235        F  0.86568990  0.56807019  0.07410568    -0.15800
F236        F  0.89996854  0.47029954  0.09358841    -0.13500
C237        C  0.94184322  0.29162343  0.34626540     0.24500
C238        C  0.91400285  0.25211504  0.37515336    -0.23600
C239        C  0.89577735  0.20658017  0.34867028     0.19500
C240        C  0.90159226  0.20294299  0.29350159     0.24500
C241        C  0.92657542  0.24418719  0.26469407    -0.23500
C242        C  0.94818056  0.28751975  0.29167364     0.19400
F243        F  0.97187764  0.32808464  0.26433385    -0.13500
F244        F  0.96098396  0.33555545  0.37053673    -0.15800
F245        F  0.87942952  0.16129157  0.26787752    -0.15800
F246        F  0.86839824  0.16791891  0.37528544    -0.13500
C247        C  0.92807668  0.20789320  0.83184972     0.24500
C248        C  0.97081390  0.17368335  0.82461215    -0.23600
C249        C  0.00044456  0.15808632  0.86936894     0.19500
C250        C  0.98820962  0.17689906  0.91982874     0.24500
C251        C  0.94606366  0.21195527  0.92692580    -0.23500
C252        C  0.91601012  0.22689256  0.88208674     0.19400
F253        F  0.87408312  0.25950246  0.88650976    -0.13500
F254        F  0.89828839  0.22422256  0.79011014    -0.15800
F255        F  0.01770575  0.16044027  0.96169369    -0.15800
F256        F  0.04090122  0.12375859  0.86462294    -0.13500
C257        C  0.18932034  0.07512099  0.71340104     0.24500
C258        C  0.22075044  0.11979143  0.70006441    -0.23600
C259        C  0.19606719  0.16692717  0.68437860     0.19500
C260        C  0.14088595  0.17005765  0.68373611     0.24500
C261        C  0.10948623  0.12640676  0.69956038    -0.23500
C262        C  0.13387387  0.07860878  0.71367979     0.19400
F263        F  0.10412162  0.03643251  0.73062145    -0.13500
F264        F  0.21226029  0.02988069  0.73086302    -0.15800
F265        F  0.11810269  0.21702019  0.67174872    -0.15800
F266        F  0.22562412  0.21095224  0.67272364    -0.13500
C267        C  0.60391288  0.10962038  0.70123665     0.24500
C268        C  0.55808135  0.08342462  0.68177642    -0.23600
C269        C  0.56479749  0.04272032  0.64488916     0.19500
C270        C  0.61552301  0.02966462  0.62699483     0.24500
C271        C  0.66080947  0.05733845  0.64493902    -0.23500
C272        C  0.65437408  0.09701999  0.68272762     0.19400
F273        F  0.69713157  0.12334790  0.70255281    -0.13500
F274        F  0.60027702  0.14843941  0.73763654    -0.15800
F275        F  0.62008118  0.99112737  0.59046288    -0.15800
F276        F  0.52227490  0.01606812  0.62508999    -0.13500
C277        C  0.15162188  0.67400381  0.46119223     0.24500
C278        C  0.17724335  0.69688653  0.50499169    -0.23600
C279        C  0.21372003  0.73865025  0.49601809     0.19500
C280        C  0.22492064  0.75670452  0.44447090     0.24500
C281        C  0.20018616  0.73312305  0.40022367    -0.23500
C282        C  0.16304166  0.69170517  0.40948651     0.19400
F283        F  0.13862207  0.66706293  0.36855286    -0.13500
F284        F  0.11685119  0.63293771  0.46820947    -0.15800
F285        F  0.26098917  0.79676311  0.43820040    -0.15800
F286        F  0.23818698  0.76273338  0.53729782    -0.13500
C287        C  0.37711271  0.40330288  0.78920860     0.24500
C288        C  0.35889015  0.42771192  0.74249067    -0.23600
C289        C  0.33573650  0.39669254  0.70280471     0.19500
C290        C  0.33430906  0.34149968  0.70817835     0.24500
C291        C  0.35511010  0.31686837  0.75372522    -0.23500
C292        C  0.37464876  0.34815137  0.79510339     0.19400
F293        F  0.39673226  0.32511493  0.83852771    -0.13500
F294        F  0.40088344  0.43266830  0.82733129    -0.15800
F295        F  0.31625382  0.31184463  0.66732372    -0.15800
F296        F  0.31908191  0.41952837  0.65686899    -0.13500
C297        C  0.29202278  0.71729551  0.98525659     0.24500
C298        C  0.25288407  0.73917525  0.95265068    -0.23600
C299        C  0.20439260  0.75387738  0.97484738     0.19500
C300        C  0.19667734  0.75047481  0.02977325     0.24500
C301        C  0.23785637  0.73330993  0.06284736    -0.23500
C302        C  0.28466372  0.71462776  0.04009715     0.19400
F303        F  0.32506561  0.69822711  0.07148188    -0.13500
F304        F  0.33925053  0.70319858  0.96448539    -0.15800
F305        F  0.15160749  0.76965721  0.05100821    -0.15800
F306        F  0.16615328  0.77511621  0.94373268    -0.13500
C307        C  0.36181131  0.88460692  0.79663552     0.24500
C308        C  0.31574844  0.87517072  0.82666079    -0.23600
C309        C  0.28843647  0.91860575  0.84674478     0.19500
C310        C  0.30537043  0.97059822  0.83475560     0.24500
C311        C  0.35055584  0.98025856  0.80295981    -0.23500
C312        C  0.37936690  0.93638132  0.78537653     0.19400
F313        F  0.42426334  0.94330383  0.75631125    -0.13500
F314        F  0.39031020  0.84352310  0.77851294    -0.15800
F315        F  0.27599982  0.01126561  0.85236968    -0.15800
F316        F  0.24372625  0.91075530  0.87587344    -0.13500
C317        C  0.96934339  0.57936801  0.61156582     0.24500
C318        C  0.93714180  0.61533073  0.63790853    -0.23600
C319        C  0.96094085  0.65695265  0.66610338     0.19500
C320        C  0.01605636  0.66425937  0.66560560     0.24500
C321        C  0.04781079  0.63098546  0.63547286    -0.23500
C322        C  0.02432723  0.58754501  0.60983840     0.19400
F323        F  0.05440490  0.55506678  0.58034632    -0.13500
F324        F  0.94715627  0.53971830  0.58288944    -0.15800
F325        F  0.03784554  0.70677485  0.69022000    -0.15800
F326        F  0.93045379  0.69294550  0.69057303    -0.13500
C327        C  0.80338397  0.67631756  0.79163474     0.24500
C328        C  0.75284809  0.67922330  0.76813949    -0.23600
C329        C  0.70852499  0.68767288  0.80043320     0.19500
C330        C  0.71410350  0.68669852  0.85578557     0.24500
C331        C  0.76382796  0.67709530  0.87865150    -0.23500
C332        C  0.80865185  0.67455303  0.84639122     0.19400
F333        F  0.85714998  0.66624342  0.86797562    -0.13500
F334        F  0.84742031  0.67054780  0.76153238    -0.15800
F335        F  0.67050341  0.69022340  0.88686895    -0.15800
F336        F  0.65947238  0.69141355  0.77887725    -0.13500
C337        C  0.79450876  0.84716543  0.53596700     0.24500
C338        C  0.80194476  0.81499486  0.58116205    -0.23600
C339        C  0.80698403  0.83898471  0.63099481     0.19500
C340        C  0.80090160  0.89350329  0.63607067     0.24500
C341        C  0.79006320  0.92507283  0.59146063    -0.23500
C342        C  0.78854573  0.90203018  0.54115594     0.19400
F343        F  0.77766814  0.93211458  0.49766189    -0.13500
F344        F  0.78767259  0.82498761  0.48775405    -0.15800
F345        F  0.80272236  0.91513959  0.68498024    -0.15800
F346        F  0.81397749  0.80888979  0.67540143    -0.13500
C347        C  0.72771416  0.66545186  0.38875337     0.24500
C348        C  0.70020989  0.68523959  0.43287867    -0.23600
C349        C  0.65634431  0.71779931  0.42331924     0.19500
C350        C  0.64154768  0.73140525  0.37122024     0.24500
C351        C  0.67078168  0.71345006  0.32757942    -0.23500
C352        C  0.71335704  0.67953582  0.33716221     0.19400
F353        F  0.74142495  0.65949438  0.29640584    -0.13500
F354        F  0.76986658  0.63325191  0.39499579    -0.15800
F355        F  0.59984396  0.76386629  0.36370259    -0.15800
F356        F  0.62828095  0.73742158  0.46423698    -0.13500
C357        C  0.85319669  0.47167312  0.49316162     0.24500
C358        C  0.81433852  0.47813182  0.53247884    -0.23600
C359        C  0.79434619  0.43238385  0.55911993     0.19500
C360        C  0.81345999  0.38218840  0.54771652     0.24500
C361        C  0.85248936  0.37580208  0.50880125    -0.23500
C362        C  0.87181643  0.42114810  0.48129265     0.19400
F363        F  0.91001270  0.41691490  0.44383244    -0.13500
F364        F  0.87390518  0.51424590  0.46654022    -0.15800
F365        F  0.79283790  0.33960903  0.57441857    -0.15800
F366        F  0.75689805  0.43585001  0.59745170    -0.13500
C367        C  0.50360583  0.59641086  0.64722314     0.24500
C368        C  0.49398034  0.55699681  0.68593090    -0.23600
C369        C  0.53698077  0.52720207  0.70480547     0.19500
C370        C  0.58861177  0.53749364  0.68621380     0.24500
C371        C  0.59838668  0.57733459  0.64767292    -0.23500
C372        C  0.55481234  0.60623311  0.62808956     0.19400
F373        F  0.56143072  0.64520771  0.59096199    -0.13500
F374        F  0.46318301  0.62506362  0.62685206    -0.15800
F375        F  0.62899888  0.50894707  0.70672354    -0.15800
F376        F  0.52935988  0.48900107  0.74252892    -0.13500
C377        C  0.33115921  0.52418356  0.23722724     0.24500
C378        C  0.28324701  0.49559276  0.24523162    -0.23600
C379        C  0.24030547  0.52153850  0.26831093     0.19500
C380        C  0.24332468  0.57551711  0.27846710     0.24500
C381        C  0.28914700  0.60514900  0.26580021    -0.23500
C382        C  0.33388086  0.57895561  0.24698676     0.19400
F383        F  0.37843995  0.60698718  0.23400912    -0.13500
F384        F  0.37372062  0.50028842  0.21587447    -0.15800
F385        F  0.19955552  0.59998198  0.29661598    -0.15800
F386        F  0.19414351  0.49516599  0.27885846    -0.13500
C387        C  0.15574812  0.32548067  0.12687420     0.24500
C388        C  0.16292886  0.36458097  0.16548437    -0.23600
C389        C  0.11795263  0.39075144  0.18430741     0.19500
C390        C  0.06714377  0.37689067  0.16661663     0.24500
C391        C  0.05959032  0.33630232  0.12951717    -0.23500
C392        C  0.10483381  0.31172956  0.10885657     0.19400
F393        F  0.10004907  0.27333459  0.07202087    -0.13500
F394        F  0.19805552  0.30052376  0.10622851    -0.15800
F395        F  0.02525225  0.40252183  0.18728404    -0.15800
F396        F  0.12260663  0.42845726  0.22182078    -0.13500
C397        C  0.36773405  0.20718763  0.53402971     0.24500
C398        C  0.41167336  0.18282437  0.55761602    -0.23600
C399        C  0.45039196  0.16066717  0.52522754     0.19500
C400        C  0.44345823  0.15964688  0.47021004     0.24500
C401        C  0.39833490  0.18180130  0.44674263    -0.23500
C402        C  0.36144326  0.20730170  0.47879835     0.19400
F403        F  0.31724766  0.22840265  0.45703908    -0.13500
F404        F  0.32945209  0.22806055  0.56476154    -0.15800
F405        F  0.47919895  0.13420699  0.44000272    -0.15800
F406        F  0.49233132  0.13559591  0.54725261    -0.13500
C407        C  0.36041291  0.00770836  0.34597321     0.24500
C408        C  0.34393315  0.05121792  0.31473385    -0.23600
C409        C  0.31020916  0.04144776  0.27154472     0.19500
C410        C  0.29424281  0.98978563  0.25918371     0.24500
C411        C  0.31171883  0.94587429  0.28952904    -0.23500
C412        C  0.34472341  0.95574025  0.33339228     0.19400
F413        F  0.36227173  0.91514624  0.36409857    -0.13500
F414        F  0.39300314  0.01516153  0.38806632    -0.15800
F415        F  0.26231311  0.98313279  0.21642643    -0.15800
F416        F  0.29171302  0.08206745  0.24139197    -0.13500
C417        C  0.63876332  0.26117306  0.16163241     0.24500
C418        C  0.61072923  0.29651900  0.12911914    -0.23600
C419        C  0.63830264  0.33711984  0.10172405     0.19500
C420        C  0.69354345  0.34029982  0.10406920     0.24500
C421        C  0.72181491  0.30209789  0.13274816    -0.23500
C422        C  0.69420065  0.26341685  0.16272398     0.19400
F423        F  0.72105278  0.22551611  0.18969086    -0.13500
F424        F  0.61284078  0.22119323  0.18776495    -0.15800
F425        F  0.71964996  0.37702024  0.07364156    -0.15800
F426        F  0.61189982  0.37129774  0.06967784    -0.13500
C427        C  0.49428903  0.24442002  0.90051239     0.24500
C428        C  0.46441857  0.19735622  0.89343345    -0.23600
C429        C  0.44753975  0.16860104  0.93900197     0.19500
C430        C  0.45685616  0.18816939  0.98972169     0.24500
C431        C  0.48433214  0.23623101  0.99654393    -0.23500
C432        C  0.50454064  0.26333823  0.95161931     0.19400
F433        F  0.53254671  0.30926839  0.95710638    -0.13500
F434        F  0.51205625  0.27325790  0.85814644    -0.15800
F435        F  0.43982196  0.15940443  0.03244572    -0.15800
F436        F  0.42108823  0.12163021  0.93478909    -0.13500
loop_ 
_geom_bond_atom_site_label_1 
_geom_bond_atom_site_label_2 
_geom_bond_distance 
_geom_bond_site_symmetry_2 
_ccdc_geom_bond_type 
C1            N2   1.359       .  A
C1            N6   1.357       .  A
C1          C418   1.469       .  S
N2            C3   1.361       .  A
C3            N4   1.363       .  A
C3           C19   1.476       .  S
N4            C5   1.363       .  A
C5            N6   1.354       .  A
C5          C431   1.481   1_554  S
C7            N8   1.358       .  A
C7           N12   1.362       .  A
C7          C401   1.475       .  S
N8            C9   1.357       .  A
C9           N10   1.363       .  A
C9          C408   1.493       .  S
N10          C11   1.362       .  A
C11          N12   1.363       .  A
C11          C23   1.479       .  S
C13          N14   1.362       .  A
C13          N18   1.359       .  A
C13         C378   1.488       .  S
N14          C15   1.364       .  A
C15          N16   1.362       .  A
C15          C21   1.474       .  S
N16          C17   1.361       .  A
C17          N18   1.356       .  A
C17         C388   1.492       .  S
C19          C20   1.405       .  A
C19          C24   1.406       .  A
C20          C21   1.404       .  A
C20          H25   1.085       .  S
C21          C22   1.406       .  A
C22          C23   1.406       .  A
C22          H26   1.084       .  S
C23          C24   1.407       .  A
C24          H27   1.084       .  S
O28          C43   1.255       .  A
O28         Al36   1.872       .  S
C29         C318   1.471       .  S
C29          O39   1.258       .  A
C29          O30   1.270       .  A
O30         Al32   1.964       .  S
O31          C33   1.256       .  A
O31         Al32   1.847       .  S
Al32         O40   1.879       .  S
Al32         O42   1.965       .  S
Al32         O41   1.769       .  S
C33         C328   1.474       .  S
C33          O46   1.272       .  A
O34          C44   1.251       .  A
O34         Al36   1.854       .  S
O35          C48   1.258       .  A
O35         Al45   1.867       .  S
Al36         O49   1.967       .  S
Al36         O46   1.964       .  S
Al36         O41   1.767       .  S
O37          C44   1.270       .  A
O37         Al45   1.970       .  S
O38          C47   1.276       .  A
O38         Al45   1.971       .  S
O39         Al45   1.880       .  S
O40          C47   1.261       .  A
O41         Al45   1.766       .  S
O42          C43   1.271       .  A
C43         C371   1.495       .  S
C44         C338   1.476       .  S
C47         C358   1.495       .  S
C48         C348   1.495       .  S
C48          O49   1.274       .  A
C50          N51   1.358       .  A
C50          N55   1.358       .  A
C50         C298   1.469       .  S
N51          C52   1.359       .  A
C52          N53   1.361       .  A
C52          C68   1.472       .  S
N53          C54   1.362       .  A
C54          N55   1.358       .  A
C54         C308   1.483       .  S
C56          N57   1.356       .  A
C56          N61   1.359       .  A
C56         C288   1.468       .  S
N57          C58   1.356       .  A
C58          N59   1.363       .  A
C58         C368   1.487       .  S
N59          C60   1.361       .  A
C60          N61   1.361       .  A
C60          C70   1.475       .  S
C62          N63   1.358       .  A
C62          N67   1.360       .  A
C62         C321   1.473       .  S
N63          C64   1.357       .  A
C64          N65   1.361       .  A
C64         C278   1.486       .  S
N65          C66   1.361       .  A
C66          N67   1.361       .  A
C66          C72   1.473       .  S
C68          C69   1.405       .  A
C68          C73   1.405       .  A
C69          C70   1.405       .  A
C69          H74   1.084       .  S
C70          C71   1.404       .  A
C71          C72   1.405       .  A
C71          H75   1.085       .  S
C72          C73   1.403       .  A
C73          H76   1.083       .  S
O77          C92   1.260       .  A
O77         Al85   1.880       .  S
C78         C398   1.473       .  S
C78          O88   1.257       .  A
C78          O79   1.268       .  A
O79         Al81   1.954       .  S
O80          C82   1.257       .  A
O80         Al81   1.876       .  S
Al81         O89   1.882       .  S
Al81         O91   1.963       .  S
Al81         O90   1.771       .  S
C82         C291   1.468       .  S
C82          O95   1.269       .  A
O83          C93   1.257       .  A
O83         Al85   1.872       .  S
O84          C97   1.260       .  A
O84         Al94   1.884       .  S
Al85         O98   1.954       .  S
Al85         O95   1.955       .  S
Al85         O90   1.770       .  S
O86          C93   1.270       .  A
O86         Al94   1.960       .  S
O87          C96   1.274       .  A
O87         Al94   1.962       .  S
O88         Al94   1.884       .  S
O89          C96   1.261       .  A
O90         Al94   1.769       .  S
O91          C92   1.272       .  A
C92         C428   1.494       .  S
C93         C258   1.473       .  S
C96         C268   1.497       .  S
C97         C311   1.493   1_545  S
C97          O98   1.271       .  A
C99         N100   1.361       .  A
C99         N104   1.357       .  A
C99         C261   1.471       .  S
N100        C101   1.361   1_455  A
C101        N102   1.359       .  A
C101        C117   1.474       .  S
N102        C103   1.360       .  A
C103        N104   1.357   1_655  A
C103        C248   1.490       .  S
C105        N106   1.359       .  A
C105        N110   1.361       .  A
C105        C238   1.481       .  S
N106        C107   1.356       .  A
C107        N108   1.362       .  A
C107        C361   1.490       .  S
N108        C109   1.362       .  A
C109        N110   1.361       .  A
C109        C119   1.475       .  S
C111        N112   1.356   1_565  A
C111        N116   1.359       .  A
C111        C341   1.471       .  S
N112        C113   1.358       .  A
C113        N114   1.361       .  A
C113        C121   1.472       .  S
N114        C115   1.363       .  A
C115        N116   1.360   1_545  A
C115        C271   1.489       .  S
C117        C118   1.406       .  A
C117        C122   1.401       .  A
C118        C119   1.408       .  A
C118        H123   1.084       .  S
C119        C120   1.407       .  A
C120        C121   1.405       .  A
C120        H124   1.084       .  S
C121        C122   1.401       .  A
C122        H125   1.084       .  S
O126        C141   1.261       .  A
O126       Al134   1.882   1_556  S
C127        C241   1.466       .  S
C127        O137   1.257       .  A
C127        O128   1.270       .  A
O128       Al130   1.956       .  S
O129        C131   1.256       .  A
O129       Al130   1.862       .  S
Al130       O138   1.897       .  S
Al130       O140   1.952       .  S
Al130       O139   1.770       .  S
C131        C221   1.477       .  S
C131        O144   1.270       .  A
O132        C142   1.256       .  A
O132       Al134   1.881       .  S
O133        C146   1.258       .  A
O133       Al143   1.870       .  S
Al134       O147   1.979       .  S
Al134       O144   1.964       .  S
Al134       O139   1.774       .  S
O135        C142   1.266       .  A
O135       Al143   1.946       .  S
O136        C145   1.269   1_655  A
O136       Al143   1.940       .  S
O137       Al143   1.872       .  S
O138        C145   1.262   1_655  A
O139       Al143   1.765       .  S
O140        C141   1.271   1_554  A
C141        C251   1.493       .  S
C142        C421   1.465       .  S
C145        C391   1.494       .  S
C146        C228   1.495       .  S
C146        O147   1.275       .  A
C148        N149   1.358       .  A
C148        N153   1.359       .  A
C148        C218   1.470       .  S
N149        C150   1.360       .  A
C150        N151   1.362       .  A
C150        C168   1.476       .  S
N151        C152   1.365       .  A
C152        N153   1.358       .  A
C152        C208   1.493       .  S
C154        N155   1.359       .  A
C154        N159   1.361       .  A
C154        C201   1.471       .  S
N155        C156   1.359       .  A
C156        N157   1.358       .  A
C156        C170   1.471       .  S
N157        C158   1.361       .  A
C158        N159   1.359       .  A
C158        C351   1.489       .  S
C160        N161   1.358       .  A
C160        N165   1.356       .  A
C160        C331   1.463       .  S
N161        C162   1.355       .  A
C162        N163   1.362   1_556  A
C162        C231   1.487   1_556  S
N163        C164   1.361       .  A
C164        N165   1.358   1_554  A
C164        C166   1.470       .  S
C166        C167   1.407       .  A
C166        C171   1.402       .  A
C167        C168   1.405       .  A
C167        H172   1.081       .  S
C168        C169   1.405       .  A
C169        C170   1.405       .  A
C169        H173   1.086       .  S
C170        C171   1.401       .  A
C171        H174   1.085       .  S
O175        C190   1.258       .  A
O175       Al183   1.875       .  S
C176        C198   1.472       .  S
C176        O186   1.254       .  A
C176        O177   1.271       .  A
O177       Al179   1.967       .  S
O178        C180   1.255       .  A
O178       Al179   1.867       .  S
Al179       O187   1.876       .  S
Al179       O189   1.980       .  S
Al179       O188   1.771       .  S
C180        C301   1.468       .  S
C180        O193   1.269       .  A
O181        C191   1.256       .  A
O181       Al183   1.867       .  S
O182        C195   1.260       .  A
O182       Al192   1.885       .  S
Al183       O196   1.954       .  S
Al183       O193   1.959       .  S
Al183       O188   1.767       .  S
O184        C191   1.272       .  A
O184       Al192   1.970       .  S
O185        C194   1.276       .  A
O185       Al192   1.973       .  S
O186       Al192   1.863       .  S
O187        C194   1.259       .  A
O188       Al192   1.770       .  S
O189        C190   1.276       .  A
C190        C211   1.499       .  S
C191        C381   1.472       .  S
C194        C411   1.498       .  S
C195        C281   1.495       .  S
C195        O196   1.271       .  A
C197        C198   1.404       .  A
C197        C202   1.403       .  A
C197        F204   1.357       .  S
C198        C199   1.408       .  A
C199        C200   1.400       .  A
C199        F206   1.358       .  S
C200        C201   1.402       .  A
C200        F205   1.358       .  S
C201        C202   1.405       .  A
C202        F203   1.358       .  S
C207        C208   1.404   1_455  A
C207        C212   1.398       .  A
C207        F214   1.358   1_455  S
C208        C209   1.413   1_655  A
C209        C210   1.409       .  A
C209        F216   1.358       .  S
C210        C211   1.410       .  A
C210        F215   1.357       .  S
C211        C212   1.416       .  A
C212        F213   1.358       .  S
C217        C218   1.406   1_545  A
C217        C222   1.406       .  A
C217        F224   1.357   1_545  S
C218        C219   1.399   1_565  A
C219        C220   1.394       .  A
C219        F226   1.358   1_545  S
C220        C221   1.408       .  A
C220        F225   1.357       .  S
C221        C222   1.407       .  A
C222        F223   1.358   1_554  S
C227        C228   1.409   1_556  A
C227        C232   1.408       .  A
C227        F234   1.357       .  S
C228        C229   1.416       .  A
C229        C230   1.395       .  A
C229        F236   1.358       .  S
C230        C231   1.402       .  A
C230        F235   1.358       .  S
C231        C232   1.412   1_554  A
C232        F233   1.358       .  S
C237        C238   1.407       .  A
C237        C242   1.393       .  A
C237        F244   1.358       .  S
C238        C239   1.410       .  A
C239        C240   1.405       .  A
C239        F246   1.358       .  S
C240        C241   1.403       .  A
C240        F245   1.356       .  S
C241        C242   1.401       .  A
C242        F243   1.358       .  S
C247        C248   1.408       .  A
C247        C252   1.398       .  A
C247        F254   1.358       .  S
C248        C249   1.410   1_655  A
C249        C250   1.403   1_455  A
C249        F256   1.358       .  S
C250        C251   1.409       .  A
C250        F255   1.357   1_655  S
C251        C252   1.413       .  A
C252        F253   1.358       .  S
C257        C258   1.406       .  A
C257        C262   1.404       .  A
C257        F264   1.358       .  S
C258        C259   1.406       .  A
C259        C260   1.397       .  A
C259        F266   1.358       .  S
C260        C261   1.401       .  A
C260        F265   1.358       .  S
C261        C262   1.406       .  A
C262        F263   1.358       .  S
C267        C268   1.415       .  A
C267        C272   1.401       .  A
C267        F274   1.358       .  S
C268        C269   1.410       .  A
C269        C270   1.404       .  A
C269        F276   1.357       .  S
C270        C271   1.409       .  A
C270        F275   1.357   1_545  S
C271        C272   1.406       .  A
C272        F273   1.358       .  S
C277        C278   1.408       .  A
C277        C282   1.402       .  A
C277        F284   1.358       .  S
C278        C279   1.405       .  A
C279        C280   1.400       .  A
C279        F286   1.358       .  S
C280        C281   1.414       .  A
C280        F285   1.358       .  S
C281        C282   1.411       .  A
C282        F283   1.357       .  S
C287        C288   1.404       .  A
C287        C292   1.400       .  A
C287        F294   1.358       .  S
C288        C289   1.403       .  A
C289        C290   1.399       .  A
C289        F296   1.358       .  S
C290        C291   1.406       .  A
C290        F295   1.358       .  S
C291        C292   1.404       .  A
C292        F293   1.358       .  S
C297        C298   1.402       .  A
C297        C302   1.398   1_556  A
C297        F304   1.358       .  S
C298        C299   1.405       .  A
C299        C300   1.402   1_556  A
C299        F306   1.358       .  S
C300        C301   1.404       .  A
C300        F305   1.358       .  S
C301        C302   1.406       .  A
C302        F303   1.358       .  S
C307        C308   1.404       .  A
C307        C312   1.400       .  A
C307        F314   1.358       .  S
C308        C309   1.407       .  A
C309        C310   1.404       .  A
C309        F316   1.358       .  S
C310        C311   1.411       .  A
C310        F315   1.358   1_565  S
C311        C312   1.413       .  A
C312        F313   1.358       .  S
C317        C318   1.404       .  A
C317        C322   1.401   1_655  A
C317        F324   1.358       .  S
C318        C319   1.405       .  A
C319        C320   1.401   1_655  A
C319        F326   1.357       .  S
C320        C321   1.404       .  A
C320        F325   1.358       .  S
C321        C322   1.405       .  A
C322        F323   1.358       .  S
C327        C328   1.410       .  A
C327        C332   1.389       .  A
C327        F334   1.358       .  S
C328        C329   1.406       .  A
C329        C330   1.405       .  A
C329        F336   1.357       .  S
C330        C331   1.405       .  A
C330        F335   1.357       .  S
C331        C332   1.398       .  A
C332        F333   1.359       .  S
C337        C338   1.406       .  A
C337        C342   1.405       .  A
C337        F344   1.357       .  S
C338        C339   1.409       .  A
C339        C340   1.397       .  A
C339        F346   1.359       .  S
C340        C341   1.400       .  A
C340        F345   1.358       .  S
C341        C342   1.405       .  A
C342        F343   1.357       .  S
C347        C348   1.415       .  A
C347        C352   1.395       .  A
C347        F354   1.358       .  S
C348        C349   1.410       .  A
C349        C350   1.407       .  A
C349        F356   1.357       .  S
C350        C351   1.411       .  A
C350        F355   1.357       .  S
C351        C352   1.405       .  A
C352        F353   1.358       .  S
C357        C358   1.409       .  A
C357        C362   1.405       .  A
C357        F364   1.358       .  S
C358        C359   1.415       .  A
C359        C360   1.399       .  A
C359        F366   1.358       .  S
C360        C361   1.405       .  A
C360        F365   1.358       .  S
C361        C362   1.411       .  A
C362        F363   1.358       .  S
C367        C368   1.404       .  A
C367        C372   1.398       .  A
C367        F374   1.358       .  S
C368        C369   1.411       .  A
C369        C370   1.405       .  A
C369        F376   1.358       .  S
C370        C371   1.409       .  A
C370        F375   1.357       .  S
C371        C372   1.416       .  A
C372        F373   1.358       .  S
C377        C378   1.412       .  A
C377        C382   1.410       .  A
C377        F384   1.357       .  S
C378        C379   1.407       .  A
C379        C380   1.393       .  A
C379        F386   1.358       .  S
C380        C381   1.402       .  A
C380        F385   1.358       .  S
C381        C382   1.405       .  A
C382        F383   1.357       .  S
C387        C388   1.408       .  A
C387        C392   1.404       .  A
C387        F394   1.358       .  S
C388        C389   1.410       .  A
C389        C390   1.399       .  A
C389        F396   1.357       .  S
C390        C391   1.410       .  A
C390        F395   1.358       .  S
C391        C392   1.413       .  A
C392        F393   1.358       .  S
C397        C398   1.406       .  A
C397        C402   1.404       .  A
C397        F404   1.358       .  S
C398        C399   1.404       .  A
C399        C400   1.401       .  A
C399        F406   1.358       .  S
C400        C401   1.405       .  A
C400        F405   1.358       .  S
C401        C402   1.405       .  A
C402        F403   1.358       .  S
C407        C408   1.412       .  A
C407        C412   1.406   1_545  A
C407        F414   1.358       .  S
C408        C409   1.406       .  A
C409        C410   1.400   1_545  A
C409        F416   1.358       .  S
C410        C411   1.416       .  A
C410        F415   1.358       .  S
C411        C412   1.409       .  A
C412        F413   1.357       .  S
C417        C418   1.405       .  A
C417        C422   1.400       .  A
C417        F424   1.358       .  S
C418        C419   1.404       .  A
C419        C420   1.397       .  A
C419        F426   1.358       .  S
C420        C421   1.403       .  A
C420        F425   1.358       .  S
C421        C422   1.404       .  A
C422        F423   1.358       .  S
C427        C428   1.411       .  A
C427        C432   1.405       .  A
C427        F434   1.358       .  S
C428        C429   1.414       .  A
C429        C430   1.398       .  A
C429        F436   1.358       .  S
C430        C431   1.402       .  A
C430        F435   1.358   1_556  S
C431        C432   1.408       .  A
C432        F433   1.358       .  S
