geometry optimzed in LAMMPS
_audit_creation_date              2020-11-30 
_audit_creation_method            'lammps2cif' 
_symmetry_space_group_name_H-M    'P1' 
_symmetry_Int_Tables_number       1 
_symmetry_cell_setting            triclinic 
loop_ 
_symmetry_equiv_pos_as_xyz 
  x,y,z 
_cell_length_a                    41.20279679 
_cell_length_b                    40.953856556114594 
_cell_length_c                    36.41267871383158 
_cell_angle_alpha                 89.17652152168719 
_cell_angle_beta                  90.48353820474848 
_cell_angle_gamma                 91.64817085377443 
loop_ 
_atom_site_label 
_atom_site_type_symbol 
_atom_site_fract_x 
_atom_site_fract_y 
_atom_site_fract_z 
_atom_site_charge 
C1          C  0.10223591  0.49962759  0.00525704    -0.01600
O2          O  0.35287710  0.01331401  0.29325210    -0.70900
O3          O  0.28885804  0.02723778  0.22013498    -0.71100
O4          O  0.28782335  0.01788802  0.29319125    -0.71000
O5          O  0.35341417  0.02152406  0.22016038    -0.71000
O6          O  0.34920100  0.47585759  0.21264086    -0.71000
O7          O  0.28405966  0.47250703  0.28447051    -0.71000
O8          O  0.28473946  0.48148116  0.21112636    -0.70900
O9          O  0.34925180  0.46777658  0.28565355    -0.71100
V10         V  0.32058411  0.01894536  0.25663865     1.35200
V11         V  0.31686863  0.47541961  0.24869997     1.35200
C12         C  0.36352083  0.49202203  0.30067442     0.78300
C13         C  0.27678024  0.51016093  0.20198843     0.78400
C14         C  0.27565919  0.49783512  0.30065022     0.78300
C15         C  0.36291294  0.50240754  0.20267084     0.78200
C16         C  0.04284242  0.49653948  0.50347088    -0.01600
C17         C  0.07273019  0.02926495  0.00299410    -0.01600
O18         O  0.11559228  0.28057602  0.21477374    -0.70900
O19         O  0.11327508  0.21879454  0.29377793    -0.71100
O20         O  0.11474916  0.21468596  0.22041876    -0.71000
O21         O  0.11417277  0.28475700  0.28828077    -0.71000
O22         O  0.06164316  0.28297814  0.28723366    -0.71000
O23         O  0.06207029  0.21495680  0.21767104    -0.71000
O24         O  0.06056561  0.21695223  0.29084369    -0.70900
O25         O  0.06283423  0.28021106  0.21373098    -0.71100
V26         V  0.11346124  0.24970350  0.25433640     1.35200
V27         V  0.06282694  0.24883829  0.25254016     1.35200
C28         C  0.08952138  0.29095130  0.20095367     0.78300
C29         C  0.08651681  0.20670072  0.30498025     0.78400
C30         C  0.08839115  0.20301971  0.20741527     0.78300
C31         C  0.08778167  0.29618950  0.29911505     0.78200
C32         C  0.07336301  0.46887829  0.49984143    -0.01600
C33         C  0.10779070  0.36164723  0.37149610    -0.11000
C34         C  0.07743080  0.37599883  0.37480909     0.11600
C35         C  0.05206629  0.36671900  0.35012457    -0.02800
C36         C  0.05689165  0.34070028  0.32632762    -0.05600
C37         C  0.08656080  0.32469768  0.32439730    -0.16300
C38         C  0.11323175  0.33678086  0.34592490     0.02600
C39         C  0.07351184  0.40038225  0.40439272     0.12500
C40         C  0.01993690  0.38379474  0.34606181     0.63200
H41         H  0.03700047  0.33318943  0.30837835     0.12600
C42         C  0.14728854  0.32408408  0.34211441     0.55300
H43         H  0.12724734  0.37004337  0.38952047     0.08400
C44         C  0.05399906  0.39388058  0.43524489    -0.05400
C45         C  0.05215591  0.41814475  0.46207843    -0.06200
C46         C  0.06809272  0.44977457  0.46016167    -0.15800
C47         C  0.08021887  0.45728899  0.42342611    -0.01400
C48         C  0.08940852  0.43088632  0.40130011    -0.08900
C49         C  0.03873748  0.35999142  0.44254505     0.65400
H50         H  0.03957240  0.41089244  0.48653132     0.10000
C51         C  0.06484197  0.48194436  0.39685838     0.63800
H52         H  0.10308381  0.43572232  0.37637920     0.08200
F53         F  0.14741148  0.29112369  0.35072954    -0.19300
F54         F  0.16929256  0.33989152  0.36521348    -0.15500
F55         F  0.15788018  0.32923060  0.30648185    -0.19000
F56         F  0.01609682  0.40838465  0.37091956    -0.22400
F57         F  0.99452818  0.36127584  0.35040870    -0.23900
F58         F  0.01791642  0.39732401  0.31113138    -0.17800
F59         F  0.08555969  0.48979832  0.36828143    -0.20300
F60         F  0.05650336  0.51071105  0.41208398    -0.21500
F61         F  0.03749750  0.46782139  0.38120318    -0.18700
F62         F  0.02877602  0.35603937  0.47860219    -0.18800
F63         F  0.06084017  0.33602025  0.43586750    -0.22600
F64         F  0.01194649  0.35505211  0.42019833    -0.24200
C65         C  0.10171219  0.38645087  0.05291645    -0.11000
C66         C  0.07950288  0.38354634  0.08098358     0.11600
C67         C  0.05335895  0.40442624  0.08083584    -0.02800
C68         C  0.05303605  0.43045338  0.05502246    -0.05600
C69         C  0.07730543  0.43814158  0.02859709    -0.16300
C70         C  0.10022284  0.41105910  0.02519772     0.02600
C71         C  0.08429765  0.35851765  0.11028477     0.12500
C72         C  0.02557602  0.39885675  0.10778341     0.63200
H73         H  0.03268351  0.44423187  0.05590947     0.12600
C74         C  0.12138616  0.40142123  0.99310442     0.55300
H75         H  0.12021096  0.36815770  0.05236810     0.08400
C76         C  0.07499082  0.32527682  0.10570820    -0.05400
C77         C  0.07700578  0.30393994  0.13621980    -0.06200
C78         C  0.08980284  0.31449588  0.16998311    -0.15800
C79         C  0.10129622  0.34716468  0.17378110    -0.01400
C80         C  0.09811229  0.36882101  0.14370129    -0.08900
C81         C  0.06408294  0.31219995  0.06861947     0.65400
H82         H  0.06913131  0.27858187  0.13382500     0.10800
C83         C  0.11580177  0.35921406  0.20976011     0.63800
H84         H  0.10580496  0.39422399  0.14616186     0.08200
F85         F  0.10751858  0.37435038  0.97653054    -0.19300
F86         F  0.15136786  0.39163096  0.00562688    -0.15500
F87         F  0.12638425  0.42523385  0.96726204    -0.19000
F88         F  0.03689279  0.40150271  0.14348512    -0.22400
F89         F  0.01171966  0.36805230  0.10318572    -0.23900
F90         F  0.00145512  0.42119520  0.10272938    -0.17800
F91         F  0.14321156  0.34190120  0.21844445    -0.20300
F92         F  0.09334267  0.35485338  0.23754124    -0.21500
F93         F  0.12471749  0.39204757  0.20785360    -0.18700
F94         F  0.05324199  0.27994569  0.07115066    -0.18800
F95         F  0.08991174  0.31384130  0.04462543    -0.22600
F96         F  0.03911739  0.33033137  0.05422111    -0.24200
C97         C  0.05368901  0.08750022  0.42135245    -0.11000
C98         C  0.08414973  0.09774721  0.40821121     0.11600
C99         C  0.11163508  0.08904536  0.42969982    -0.02800
C100        C  0.10658449  0.06799305  0.46051719    -0.05600
C101        C  0.07523970  0.05629661  0.47203400    -0.16300
C102        C  0.05203198  0.07954898  0.45882578     0.02600
C103        C  0.08502647  0.12467166  0.38011838     0.12500
C104        C  0.14595540  0.10154311  0.42185670     0.63200
H105        H  0.12778453  0.05884643  0.47283744     0.12600
C106        C  0.04334069  0.11050465  0.47968033     0.55300
H107        H  0.03271612  0.09839090  0.40847506     0.08400
C108        C  0.07057450  0.12218319  0.34457957    -0.05400
C109        C  0.07054574  0.15010720  0.32171308    -0.06200
C110        C  0.08551393  0.17970062  0.33219958    -0.15800
C111        C  0.09911508  0.18262268  0.36770134    -0.01400
C112        C  0.09770990  0.15527942  0.39143690    -0.08900
C113        C  0.05502923  0.09139279  0.32854419     0.65400
H114        H  0.05923169  0.14854608  0.29477053     0.10800
C115        C  0.11409753  0.21472738  0.38073673     0.63800
H116        H  0.10651934  0.15766677  0.41934587     0.08200
F117        F  0.05153719  0.13889477  0.46013976    -0.19300
F118        F  0.05969048  0.11336839  0.51226144    -0.15500
F119        F  0.01037020  0.11128095  0.48511908    -0.19000
F120        F  0.15361136  0.12730641  0.44477110    -0.22400
F121        F  0.14980723  0.11159865  0.38570544    -0.23900
F122        F  0.16776473  0.07729814  0.42875785    -0.17800
F123        F  0.12325639  0.21317268  0.41737378    -0.20300
F124        F  0.09191227  0.23926043  0.37652994    -0.21500
F125        F  0.14144511  0.22255246  0.36035978    -0.18700
F126        F  0.07115506  0.08364543  0.29679678    -0.18800
F127        F  0.02297312  0.09719058  0.31972812    -0.22600
F128        F  0.05563190  0.06459544  0.35175283    -0.24200
C129        C  0.04937858  0.08547192  0.09071829    -0.11000
C130        C  0.07823966  0.10286550  0.09646607     0.11600
C131        C  0.10398400  0.09753123  0.07256613    -0.02800
C132        C  0.10074028  0.07216915  0.04672375    -0.05600
C133        C  0.07154821  0.05379403  0.03856249    -0.16300
C134        C  0.04394094  0.06732188  0.05828837     0.02600
C135        C  0.07979091  0.12876984  0.12509021     0.12500
C136        C  0.13315565  0.12117977  0.07112939     0.63200
H137        H  0.12058752  0.07056093  0.02913149     0.12600
C138        C  0.00988200  0.07432463  0.04444111     0.55300
H139        H  0.02905168  0.09130024  0.10799254     0.08400
C140        C  0.06479035  0.15944686  0.12049888    -0.05400
C141        C  0.06899801  0.18292638  0.14794651    -0.06200
C142        C  0.08763780  0.17714702  0.17948818    -0.15800
C143        C  0.10249578  0.14662143  0.18442984    -0.01400
C144        C  0.09760880  0.12261270  0.15738342    -0.08900
C145        C  0.04297758  0.16736112  0.08806204     0.65400
H146        H  0.05728359  0.20620436  0.14523580     0.10800
C147        C  0.12282590  0.13925731  0.21827069     0.63800
H148        H  0.10802507  0.09883147  0.16091475     0.08200
F149        F  0.00560805  0.10761224  0.04243161    -0.19300
F150        F  0.98690869  0.06247790  0.06873952    -0.15500
F151        F  0.00356459  0.06280964  0.01059130    -0.19000
F152        F  0.14734431  0.12419498  0.10529034    -0.22400
F153        F  0.12309364  0.15158509  0.05964843    -0.23900
F154        F  0.15662524  0.11133849  0.04706203    -0.17800
F155        F  0.13304481  0.10734915  0.21897987    -0.20300
F156        F  0.10483289  0.14394951  0.24943348    -0.21500
F157        F  0.15003136  0.15979612  0.21890589    -0.18700
F158        F  0.03581892  0.20018731  0.08627737    -0.18800
F159        F  0.01407218  0.14982629  0.09160481    -0.22600
F160        F  0.05773857  0.15983161  0.05558085    -0.24200
C161        C  0.41267163  0.48473033  0.38917684    -0.11000
C162        C  0.44299798  0.98684540  0.37671447     0.11600
C163        C  0.44699901  0.99146249  0.33825692    -0.02800
C164        C  0.41956574  0.98832155  0.31513616    -0.05600
C165        C  0.39048682  0.48808870  0.32726709    -0.16300
C166        C  0.38565588  0.48253422  0.36535735     0.02600
C167        C  0.47012144  0.98935640  0.40429270     0.12500
C168        C  0.47901299  0.99994004  0.31964653     0.63200
H169        H  0.42238758  0.99262241  0.28583678     0.12600
C170        C  0.35288716  0.47470297  0.38265225     0.55300
H171        H  0.40908400  0.48091552  0.41842985     0.08400
C172        C  0.48095148  0.01919376  0.41909582    -0.05400
C173        C  0.50419520  0.01898311  0.44807552    -0.06200
C174        C  0.51675441  0.49319010  0.46651954    -0.15800
C175        C  0.49675774  0.46436648  0.45531254    -0.01400
C176        C  0.47976719  0.46466857  0.42138755    -0.08900
C177        C  0.46579533  0.05095160  0.40635808     0.65400
H178        H  0.50804763  0.04115936  0.46035624     0.10800
C179        C  0.98255647  0.43788253  0.47957539     0.63800
H180        H  0.46799536  0.44240068  0.41143025     0.08200
F181        F  0.34489806  0.49984767  0.40554874    -0.19300
F182        F  0.35483580  0.44620732  0.40333991    -0.15500
F183        F  0.32813324  0.47033422  0.35726311    -0.19000
F184        F  0.48677034  0.97486915  0.29654098    -0.22400
F185        F  0.50441845  0.00491534  0.34392791    -0.23900
F186        F  0.47584573  0.02826492  0.29889740    -0.17800
F187        F  0.95005642  0.44499232  0.48306990    -0.20300
F188        F  0.99478467  0.43484854  0.51401508    -0.21500
F189        F  0.98371170  0.40762702  0.46324232    -0.18700
F190        F  0.47606326  0.07721062  0.42717109    -0.18800
F191        F  0.43236686  0.04836001  0.40922359    -0.22600
F192        F  0.47382988  0.05769320  0.37026362    -0.24200
C193        C  0.49105697  0.98979338  0.10201079    -0.11000
C194        C  0.45916341  0.49355599  0.08891904     0.11600
C195        C  0.45312817  0.49862860  0.05161537    -0.02800
C196        C  0.47933464  0.49787153  0.02717406    -0.05600
C197        C  0.51350759  0.49482120  0.03687579    -0.16300
C198        C  0.51742119  0.99218038  0.07753208     0.02600
C199        C  0.43350465  0.49536653  0.11679543     0.12500
C200        C  0.41935932  0.50780800  0.03806729     0.63200
H201        H  0.47140046  0.50241060  0.99990278     0.12600
C202        C  0.04884784  0.99692353  0.09604421     0.55300
H203        H  0.49555849  0.98807265  0.13142054     0.08400
C204        C  0.41231940  0.46874592  0.12569372    -0.05400
C205        C  0.38962090  0.47274389  0.15345661    -0.06200
C206        C  0.38751202  0.50202560  0.17307124    -0.15800
C207        C  0.40853638  0.02305349  0.16728226    -0.01400
C208        C  0.43079513  0.02020112  0.13844413    -0.08900
C209        C  0.41251875  0.43546639  0.10770574     0.65400
H210        H  0.37332341  0.45223905  0.15988221     0.10800
C211        C  0.40848435  0.05461338  0.18878691     0.63800
H212        H  0.44673406  0.04069273  0.13115741     0.08200
F213        F  0.04809484  0.96941377  0.11849902    -0.19300
F214        F  0.05537698  0.02362230  0.11784677    -0.15500
F215        F  0.07163519  0.99437919  0.07098058    -0.19000
F216        F  0.41032083  0.53609124  0.05509591    -0.22400
F217        F  0.39697780  0.48311929  0.04629570    -0.23900
F218        F  0.41809661  0.51346226  0.00050192    -0.17800
F219        F  0.41331058  0.04788531  0.22575919    -0.20300
F220        F  0.37923715  0.06985067  0.18366323    -0.21500
F221        F  0.43295328  0.07635664  0.17768953    -0.18700
F222        F  0.38206749  0.42836590  0.09306190    -0.18800
F223        F  0.41950604  0.41197483  0.13404731    -0.22600
F224        F  0.43487171  0.43347004  0.07987379    -0.24200
C225        C  0.18421393  0.47628113  0.44862000    -0.11000
C226        C  0.17370486  0.99072757  0.41258748     0.11600
C227        C  0.14450393  0.00649385  0.40705644    -0.02800
C228        C  0.12145160  0.00593206  0.43568972    -0.05600
C229        C  0.12968884  0.49235590  0.47229277    -0.16300
C230        C  0.16104972  0.47559638  0.47704019     0.02600
C231        C  0.19975561  0.99103213  0.38467154     0.12500
C232        C  0.13851358  0.02456171  0.37091160     0.63200
H233        H  0.09968438  0.01747855  0.42996875     0.12600
C234        C  0.17503099  0.45802962  0.51084983     0.55300
H235        H  0.20711231  0.46418039  0.45219593     0.08400
C236        C  0.22745520  0.01235644  0.38640645    -0.05400
C237        C  0.25044901  0.01136774  0.35837225    -0.06200
C238        C  0.25072363  0.49563650  0.32953397    -0.15800
C239        C  0.22223183  0.47546785  0.32650447    -0.01400
C240        C  0.20071816  0.47367749  0.35625581    -0.08900
C241        C  0.23420227  0.03698810  0.41643727     0.65400
H242        H  0.27165295  0.02764980  0.35972982     0.10800
C243        C  0.21360524  0.45715425  0.29155765     0.63800
H244        H  0.17895197  0.45825143  0.35481539     0.08200
F245        F  0.19825666  0.47746259  0.52784952    -0.19300
F246        F  0.19113863  0.43042987  0.50074892    -0.15500
F247        F  0.15276046  0.45089249  0.03440411    -0.19000
F248        F  0.13668112  0.00267263  0.34238234    -0.22400
F249        F  0.16357187  0.04689105  0.36392822    -0.23900
F250        F  0.11009091  0.04133758  0.37129808    -0.17800
F251        F  0.23485195  0.43210400  0.28667332    -0.20300
F252        F  0.21520912  0.47839708  0.26168233    -0.21500
F253        F  0.18247149  0.44352122  0.29269952    -0.18700
F254        F  0.23484304  0.06811016  0.40114035    -0.18800
F255        F  0.26416933  0.03122384  0.43227308    -0.22600
F256        F  0.21146682  0.03581325  0.44391010    -0.24200
C257        C  0.14870675  0.52445630  0.10342476    -0.11000
C258        C  0.17833263  0.03568025  0.09168326     0.11600
C259        C  0.18295033  0.03901863  0.05382759    -0.02800
C260        C  0.15812469  0.02763696  0.02955713    -0.05600
C261        C  0.12886855  0.50968564  0.04000578    -0.16300
C262        C  0.13103732  0.50289107  0.08020517     0.02600
C263        C  0.20596440  0.03040697  0.11803808     0.12500
C264        C  0.21407274  0.05398671  0.03798177     0.63200
H265        H  0.16417163  0.03229286  0.00141522     0.12600
C266        C  0.12849886  0.47050550  0.10178519     0.55300
H267        H  0.14663273  0.52141825  0.13299833     0.08400
C268        C  0.21310003  0.05111812  0.14793139    -0.05400
C269        C  0.23566333  0.04117105  0.17477914    -0.06200
C270        C  0.25251860  0.51690709  0.17238257    -0.15800
C271        C  0.24957360  0.49862442  0.13962835    -0.01400
C272        C  0.22615209  0.50761879  0.11308902    -0.08900
C273        C  0.19742559  0.08384085  0.15108253     0.65400
H274        H  0.24076150  0.05679401  0.19797464     0.10800
C275        C  0.27136991  0.47023151  0.13216418     0.63800
H276        H  0.22246041  0.49288692  0.08894639     0.08200
F277        F  0.11354319  0.47457120  0.13529647    -0.19300
F278        F  0.15944764  0.45938488  0.10875681    -0.15500
F279        F  0.11212845  0.44650116  0.08482988    -0.19000
F280        F  0.23159404  0.03005827  0.02150431    -0.22400
F281        F  0.23357721  0.06859809  0.06449045    -0.23900
F282        F  0.20665183  0.07762150  0.01197131    -0.17800
F283        F  0.26443213  0.44480268  0.15648465    -0.20300
F284        F  0.30358654  0.48016183  0.13608699    -0.21500
F285        F  0.26708903  0.45860819  0.09688051    -0.18700
F286        F  0.20848980  0.10091578  0.18148189    -0.18800
F287        F  0.16428330  0.07924579  0.15416775    -0.22600
F288        F  0.20453915  0.10253260  0.12015046    -0.24200
C289        C  0.10323202  0.49885289  0.50512095    -0.01600
O290        O  0.35554525  0.01852715  0.79038419    -0.70900
O291        O  0.28800140  0.02880452  0.72036328    -0.71100
O292        O  0.29029097  0.02044182  0.79407154    -0.71000
O293        O  0.35266518  0.02561284  0.71719281    -0.71000
O294        O  0.34844720  0.47339272  0.71352916    -0.71000
O295        O  0.28466735  0.47214956  0.78720006    -0.71000
O296        O  0.28403258  0.47990187  0.71373469    -0.70900
O297        O  0.34977034  0.46644389  0.78666985    -0.71100
V298        V  0.32146174  0.02234562  0.75549516     1.35200
V299        V  0.31678046  0.47397702  0.75050903     1.35200
C300        C  0.36450546  0.49072312  0.80102706     0.78300
C301        C  0.27660430  0.50848264  0.70362351     0.78400
C302        C  0.27635287  0.49794367  0.80255672     0.78300
C303        C  0.36266221  0.49963264  0.70332310     0.78200
C304        C  0.04193399  0.49668049  0.00344541    -0.01600
C305        C  0.07105634  0.02879428  0.50517950    -0.01600
O306        O  0.12218766  0.28300589  0.71536146    -0.70900
O307        O  0.12134175  0.21972847  0.79328065    -0.71100
O308        O  0.12387569  0.21711254  0.71985594    -0.71000
O309        O  0.11996272  0.28579059  0.78938741    -0.71000
O310        O  0.06745651  0.28182227  0.78805966    -0.71000
O311        O  0.07120586  0.21584768  0.71600981    -0.71000
O312        O  0.06875679  0.21570300  0.78915788    -0.70900
O313        O  0.06941370  0.28092681  0.71425096    -0.71100
V314        V  0.12086898  0.25143005  0.75450196     1.35200
V315        V  0.07026699  0.24871427  0.75207582     1.35200
C316        C  0.09575693  0.29243084  0.70138933     0.78300
C317        C  0.09489405  0.20611647  0.80344900     0.78400
C318        C  0.09808375  0.20493368  0.70602084     0.78300
C319        C  0.09303533  0.29565947  0.80066769     0.78200
C320        C  0.07263420  0.46908938  0.00031274    -0.01600
C321        C  0.10910449  0.35712957  0.87836569    -0.11000
C322        C  0.07998546  0.37397035  0.87775296     0.11600
C323        C  0.05709515  0.36767705  0.84929748    -0.02800
C324        C  0.06197353  0.34115867  0.82595966    -0.05600
C325        C  0.09066087  0.32327267  0.82709785    -0.16300
C326        C  0.11564065  0.33293955  0.85239037     0.02600
C327        C  0.07476485  0.39866820  0.90669459     0.12500
C328        C  0.02979585  0.39089608  0.84067970     0.63200
H329        H  0.04397308  0.33533381  0.80505550     0.12600
C330        C  0.14920297  0.31864812  0.85198527     0.55300
H331        H  0.12696526  0.36360354  0.89921042     0.08400
C332        C  0.05423125  0.39247586  0.93685635    -0.05400
C333        C  0.05160410  0.41714908  0.96337255    -0.06200
C334        C  0.06729693  0.44897086  0.96106344    -0.15800
C335        C  0.07981042  0.45562599  0.92438373    -0.01400
C336        C  0.09119827  0.42890257  0.90438588    -0.08900
C337        C  0.03937718  0.35837458  0.94409662     0.65400
H338        H  0.03933765  0.40989365  0.98805272     0.10000
C339        C  0.06126750  0.47596942  0.89589879     0.63800
H340        H  0.10656376  0.43340576  0.88069067     0.08200
F341        F  0.14694179  0.28530488  0.85746178    -0.19300
F342        F  0.16921661  0.33150167  0.87923932    -0.15500
F343        F  0.16376683  0.32561234  0.81858861    -0.19000
F344        F  0.01105326  0.39614897  0.87112990    -0.22400
F345        F  0.00938542  0.37911336  0.81320776    -0.23900
F346        F  0.04324948  0.42040353  0.82868167    -0.17800
F347        F  0.07909793  0.48120126  0.86425982    -0.20300
F348        F  0.05283829  0.50610145  0.90746464    -0.21500
F349        F  0.03367445  0.45868113  0.88561922    -0.18700
F350        F  0.02483824  0.35581913  0.97818968    -0.18800
F351        F  0.06321252  0.33532048  0.94306674    -0.22600
F352        F  0.01611561  0.35067637  0.91791955    -0.24200
C353        C  0.10279378  0.38631951  0.55231771    -0.11000
C354        C  0.07975515  0.38238989  0.57944777     0.11600
C355        C  0.05295765  0.40250194  0.57833278    -0.02800
C356        C  0.05305222  0.42913578  0.55323878    -0.05600
C357        C  0.07779384  0.43743822  0.52758722    -0.16300
C358        C  0.10077154  0.41043628  0.52412976     0.02600
C359        C  0.08527615  0.35818490  0.60956352     0.12500
C360        C  0.02398597  0.39545601  0.60320815     0.63200
H361        H  0.03259102  0.44278983  0.55381047     0.12600
C362        C  0.12043529  0.39965507  0.49117479     0.55300
H363        H  0.12219934  0.36901069  0.55263669     0.08400
C364        C  0.08017607  0.32408186  0.60510560    -0.05400
C365        C  0.08441531  0.30332451  0.63585704    -0.06200
C366        C  0.09501342  0.31546355  0.66988771    -0.15800
C367        C  0.10206334  0.34921263  0.67369412    -0.01400
C368        C  0.09693804  0.37013066  0.64331894    -0.08900
C369        C  0.07065180  0.30959521  0.56819673     0.65400
H370        H  0.07959248  0.27727985  0.63360925     0.10800
C371        C  0.11441049  0.36294491  0.70984039     0.63800
H372        H  0.10168653  0.39617613  0.64571020     0.08200
F373        F  0.10498907  0.37283881  0.47575971    -0.19300
F374        F  0.15039600  0.38874510  0.50224298    -0.15500
F375        F  0.12543002  0.42292514  0.46464387    -0.19000
F376        F  0.03333847  0.39670589  0.63969229    -0.22400
F377        F  0.01092194  0.36473229  0.59606086    -0.23900
F378        F  0.99978632  0.41766190  0.59774678    -0.17800
F379        F  0.11826501  0.39663328  0.70827520    -0.20300
F380        F  0.14418118  0.34992526  0.71838785    -0.21500
F381        F  0.09269330  0.35496353  0.73752615    -0.18700
F382        F  0.06491889  0.27617857  0.57079782    -0.18800
F383        F  0.09538670  0.31515130  0.54330356    -0.22600
F384        F  0.04276614  0.32358747  0.55480114    -0.24200
C385        C  0.05975168  0.08711773  0.91783970    -0.11000
C386        C  0.09092335  0.09657980  0.90602396     0.11600
C387        C  0.11739091  0.08812466  0.92933790    -0.02800
C388        C  0.11069757  0.06836084  0.96084816    -0.05600
C389        C  0.07881934  0.05672999  0.97023589    -0.16300
C390        C  0.05658259  0.08011469  0.95538349     0.02600
C391        C  0.09320314  0.12321732  0.87767496     0.12500
C392        C  0.15234157  0.09916439  0.92248029     0.63200
H393        H  0.13109572  0.05997239  0.97528306     0.12600
C394        C  0.04851770  0.11200312  0.97463408     0.55300
H395        H  0.03943352  0.09804747  0.90365017     0.08400
C396        C  0.07931913  0.12083757  0.84186710    -0.05400
C397        C  0.07959165  0.14887862  0.81909406    -0.06200
C398        C  0.09438220  0.17849254  0.83000904    -0.15800
C399        C  0.10770314  0.18110108  0.86567392    -0.01400
C400        C  0.10604994  0.15367334  0.88920145    -0.08900
C401        C  0.06409651  0.08995493  0.82561913     0.65400
H402        H  0.06860190  0.14741674  0.79197631     0.10800
C403        C  0.12274566  0.21297484  0.87909072     0.63800
H404        H  0.11468844  0.15593121  0.91719114     0.08200
F405        F  0.06096075  0.13939204  0.95609937    -0.19300
F406        F  0.06165646  0.11398832  0.00902795    -0.15500
F407        F  0.01535095  0.11537355  0.97556610    -0.19000
F408        F  0.16060918  0.12454585  0.94568451    -0.22400
F409        F  0.15741534  0.10915443  0.88649376    -0.23900
F410        F  0.17288705  0.07388139  0.92990496    -0.17800
F411        F  0.13082410  0.21149399  0.91604459    -0.20300
F412        F  0.10102213  0.23781203  0.87395274    -0.21500
F413        F  0.15078188  0.22009276  0.85962932    -0.18700
F414        F  0.08030029  0.08261774  0.79378983    -0.18800
F415        F  0.03192220  0.09532171  0.81694707    -0.22600
F416        F  0.06513170  0.06299892  0.84861910    -0.24200
C417        C  0.05592969  0.08654513  0.59487735    -0.11000
C418        C  0.08551169  0.10345677  0.59718663     0.11600
C419        C  0.10890074  0.09704695  0.57075740    -0.02800
C420        C  0.10274551  0.07147964  0.54584971    -0.05600
C421        C  0.07275879  0.05343408  0.54093776    -0.16300
C422        C  0.04728446  0.06739791  0.56384183     0.02600
C423        C  0.08929346  0.13025353  0.62449343     0.12500
C424        C  0.13929733  0.11844024  0.56458574     0.63200
H425        H  0.12150846  0.06926309  0.52689217     0.12600
C426        C  0.01169475  0.07310922  0.55510335     0.55300
H427        H  0.03730004  0.09346572  0.61398967     0.08400
C428        C  0.07759183  0.16214240  0.61776837    -0.05400
C429        C  0.08160656  0.18575835  0.64509697    -0.06200
C430        C  0.09850873  0.17941486  0.67772282    -0.15800
C431        C  0.11247836  0.14852846  0.68339260    -0.01400
C432        C  0.10639938  0.12393992  0.65723418    -0.08900
C433        C  0.06032867  0.17150157  0.58245445     0.65400
H434        H  0.07131676  0.20964230  0.64129650     0.10800
C435        C  0.13369229  0.14167518  0.71665223     0.63800
H436        H  0.11521632  0.09961788  0.66191949     0.08200
F437        F  0.00594167  0.10612660  0.55383566    -0.19300
F438        F  0.99201629  0.06043967  0.58240088    -0.15500
F439        F  0.00209399  0.06151739  0.52233544    -0.19000
F440        F  0.14473212  0.14180010  0.59107915    -0.22400
F441        F  0.13672873  0.13419724  0.53088802    -0.23900
F442        F  0.16608076  0.09927389  0.56386784    -0.17800
F443        F  0.14356476  0.10964512  0.71782660    -0.20300
F444        F  0.11688995  0.14740420  0.74840821    -0.21500
F445        F  0.16112888  0.16190692  0.71547634    -0.18700
F446        F  0.05581341  0.20481725  0.57967435    -0.18800
F447        F  0.03021676  0.15612995  0.58148313    -0.22600
F448        F  0.07824172  0.16271370  0.55252980    -0.24200
C449        C  0.41507011  0.48131251  0.88816792    -0.11000
C450        C  0.44580141  0.98845513  0.87507190     0.11600
C451        C  0.45091641  0.99396390  0.83700407    -0.02800
C452        C  0.42371559  0.99413672  0.81323612    -0.05600
C453        C  0.39183235  0.48665153  0.82700682    -0.16300
C454        C  0.38752083  0.48111625  0.86516153     0.02600
C455        C  0.47231243  0.99043651  0.90320891     0.12500
C456        C  0.48474818  0.99681242  0.82093355     0.63200
H457        H  0.42689147  0.99872006  0.78408653     0.12600
C458        C  0.35483088  0.47538707  0.88344863     0.55300
H459        H  0.41189570  0.47801095  0.91755380     0.08400
C460        C  0.48123496  0.01985208  0.92033545    -0.05400
C461        C  0.50383504  0.01914006  0.94984612    -0.06200
C462        C  0.51730177  0.49060113  0.96620537    -0.15800
C463        C  0.49738971  0.46161700  0.95546215    -0.01400
C464        C  0.48185015  0.46080484  0.92068307    -0.08900
C465        C  0.46404983  0.05125633  0.91018766     0.65400
H466        H  0.50671637  0.04077364  0.96349116     0.10800
C467        C  0.98213553  0.43721683  0.98170272     0.63800
H468        H  0.47009599  0.43831630  0.91134415     0.08200
F469        F  0.35072075  0.49894372  0.90972430    -0.19300
F470        F  0.35424128  0.44498243  0.90051138    -0.15500
F471        F  0.32886429  0.47644775  0.85931483    -0.19000
F472        F  0.49834388  0.96643593  0.82209377    -0.22400
F473        F  0.50431297  0.01837259  0.84045977    -0.23900
F474        F  0.48409816  0.00756025  0.78471078    -0.17800
F475        F  0.94957749  0.44344004  0.98651824    -0.20300
F476        F  0.99552294  0.43480049  0.01562676    -0.21500
F477        F  0.98357238  0.40698235  0.96537515    -0.18700
F478        F  0.47413069  0.07713136  0.93166381    -0.18800
F479        F  0.43098135  0.04681646  0.91516505    -0.22600
F480        F  0.46974392  0.05987995  0.87398695    -0.24200
C481        C  0.49165504  0.99318371  0.60106893    -0.11000
C482        C  0.45885545  0.49157788  0.58933791     0.11600
C483        C  0.45249157  0.49567550  0.55200704    -0.02800
C484        C  0.47880812  0.49779055  0.52769100    -0.05600
C485        C  0.51314797  0.49601496  0.53721380    -0.16300
C486        C  0.51815290  0.99490397  0.57671312     0.02600
C487        C  0.43304071  0.49262427  0.61710117     0.12500
C488        C  0.41770058  0.49950685  0.53810593     0.63200
H489        H  0.47061428  0.50312387  0.50068792     0.12600
C490        C  0.05034422  0.99601702  0.59880399     0.55300
H491        H  0.49600201  0.99189916  0.63052383     0.08400
C492        C  0.41685696  0.46438293  0.63132175    -0.05400
C493        C  0.39474244  0.46806840  0.65984676    -0.06200
C494        C  0.38749145  0.49891274  0.67392115    -0.15800
C495        C  0.40668559  0.02779520  0.66264766    -0.01400
C496        C  0.42991827  0.02436172  0.63496080    -0.08900
C497        C  0.42219267  0.42989981  0.61822360     0.65400
H498        H  0.38276368  0.44623747  0.67097682     0.10800
C499        C  0.40412662  0.06063259  0.68118036     0.63800
H500        H  0.44546219  0.04497719  0.62701453     0.08200
F501        F  0.05106646  0.96857027  0.62118623    -0.19300
F502        F  0.05709572  0.02278422  0.62042975    -0.15500
F503        F  0.07223773  0.99383791  0.57268005    -0.19000
F504        F  0.40462797  0.52682065  0.55346536    -0.22400
F505        F  0.39896779  0.47228102  0.54792009    -0.23900
F506        F  0.41577323  0.50318385  0.50028977    -0.17800
F507        F  0.40928249  0.05702427  0.71859851    -0.20300
F508        F  0.37371418  0.07303945  0.67461110    -0.21500
F509        F  0.42690310  0.08334836  0.66810838    -0.18700
F510        F  0.39249485  0.41427352  0.61184388    -0.18800
F511        F  0.43856930  0.41276892  0.64526844    -0.22600
F512        F  0.43960242  0.42898424  0.58605762    -0.24200
C513        C  0.18391476  0.48240790  0.94839916    -0.11000
C514        C  0.17991391  0.98854622  0.91696886     0.11600
C515        C  0.15137211  0.00493629  0.90974546    -0.02800
C516        C  0.12750256  0.00574426  0.93735079    -0.05600
C517        C  0.12833909  0.49389466  0.97208580    -0.16300
C518        C  0.16072689  0.47938979  0.97655249     0.02600
C519        C  0.20684903  0.98830368  0.89012551     0.12500
C520        C  0.14682011  0.02211075  0.87271545     0.63200
H521        H  0.10678457  0.01816959  0.93034280     0.12600
C522        C  0.17527395  0.46125102  0.00947427     0.55300
H523        H  0.20819045  0.47328261  0.95255428     0.08400
C524        C  0.23393647  0.01047725  0.89158170    -0.05400
C525        C  0.25603793  0.01117482  0.86244762    -0.06200
C526        C  0.25077586  0.49694043  0.83098221    -0.15800
C527        C  0.22390811  0.47435716  0.83029979    -0.01400
C528        C  0.20112094  0.47506706  0.85873537    -0.08900
C529        C  0.24079746  0.03430955  0.92243306     0.65400
H530        H  0.27654877  0.02834779  0.86328440     0.10800
C531        C  0.21848163  0.45012133  0.79943791     0.63800
H532        H  0.18083709  0.45764064  0.85923276     0.08200
F533        F  0.19845824  0.48054107  0.02677047    -0.19300
F534        F  0.19142296  0.43417764  0.99775318    -0.15500
F535        F  0.15219940  0.44858532  0.53574360    -0.19000
F536        F  0.14441132  0.99928321  0.84515910    -0.22400
F537        F  0.17289394  0.04310405  0.86531728    -0.23900
F538        F  0.11927570  0.04027260  0.87165523    -0.17800
F539        F  0.24192896  0.42665043  0.80109754    -0.20300
F540        F  0.21984379  0.46628490  0.76582734    -0.21500
F541        F  0.18844951  0.43418535  0.80176100    -0.18700
F542        F  0.24161705  0.06583239  0.90826040    -0.18800
F543        F  0.27073079  0.02792787  0.93800450    -0.22600
F544        F  0.21804522  0.03259569  0.94991523    -0.24200
C545        C  0.15070841  0.52244027  0.60288116    -0.11000
C546        C  0.18042643  0.03136319  0.58830878     0.11600
C547        C  0.18394591  0.03471299  0.55023689    -0.02800
C548        C  0.15748731  0.02520459  0.52711554    -0.05600
C549        C  0.12986864  0.50821628  0.53979980    -0.16300
C550        C  0.13209238  0.50138779  0.58001994     0.02600
C551        C  0.20835674  0.02772540  0.61457026     0.12500
C552        C  0.21470567  0.04914171  0.53289018     0.63200
H553        H  0.16179583  0.03136517  0.49887981     0.12600
C554        C  0.12780965  0.46943166  0.60225635     0.55300
H555        H  0.14878150  0.51989507  0.63254309     0.08400
C556        C  0.21545506  0.05019282  0.64285981    -0.05400
C557        C  0.23701256  0.04127034  0.67126904    -0.06200
C558        C  0.25265645  0.51486421  0.67342292    -0.15800
C559        C  0.24659105  0.49318815  0.64381728    -0.01400
C560        C  0.22455728  0.50231114  0.61590993    -0.08900
C561        C  0.20124318  0.08389923  0.64242365     0.65400
H562        H  0.24233174  0.05840803  0.69300332     0.10800
C563        C  0.26303301  0.46054721  0.64133167     0.63800
H564        H  0.21874746  0.48557797  0.59394714     0.08200
F565        F  0.11278297  0.47489221  0.63542963    -0.19300
F566        F  0.15805308  0.45693898  0.61006305    -0.15500
F567        F  0.11057750  0.44579189  0.58556658    -0.19000
F568        F  0.22985533  0.02548713  0.51316672    -0.22400
F569        F  0.23661522  0.06125971  0.55858197    -0.23900
F570        F  0.20684733  0.07456291  0.50932180    -0.17800
F571        F  0.25292255  0.44024319  0.66995063    -0.20300
F572        F  0.29640262  0.46525098  0.64295126    -0.21500
F573        F  0.25552014  0.44481128  0.60881664    -0.18700
F574        F  0.20962808  0.10131241  0.67356919    -0.18800
F575        F  0.16784105  0.08141754  0.64050655    -0.22600
F576        F  0.21283729  0.10132176  0.61230730    -0.24200
C577        C  0.10270456  0.99922637  0.00486396    -0.01600
O578        O  0.35502303  0.52037069  0.29150981    -0.70900
O579        O  0.28999928  0.53371920  0.21907790    -0.71100
O580        O  0.28991195  0.52475473  0.29244203    -0.71000
O581        O  0.35460625  0.52825888  0.21822933    -0.71000
O582        O  0.34842806  0.96911671  0.21450103    -0.71000
O583        O  0.28126788  0.96582642  0.28461684    -0.71000
O584        O  0.28375732  0.97517199  0.21129217    -0.70900
O585        O  0.34666395  0.96073989  0.28762069    -0.71100
V586        V  0.32223462  0.52577355  0.25526796     1.35200
V587        V  0.31508815  0.96867470  0.24972959     1.35200
C588        C  0.36106277  0.98494707  0.30263409     0.78300
C589        C  0.27578913  0.00395085  0.20249918     0.78400
C590        C  0.27290028  0.99119544  0.30083948     0.78300
C591        C  0.36228362  0.99575056  0.20488444     0.78200
C592        C  0.04028268  0.99875552  0.50468124    -0.01600
C593        C  0.07110871  0.52840744  0.00421754    -0.01600
O594        O  0.11425540  0.78331467  0.21518583    -0.70900
O595        O  0.11259879  0.72026444  0.29327515    -0.71100
O596        O  0.11480207  0.71730159  0.21951487    -0.71000
O597        O  0.11199024  0.78638626  0.28898545    -0.71000
O598        O  0.05949245  0.78246485  0.28807388    -0.71000
O599        O  0.06218106  0.71722454  0.21542862    -0.71000
O600        O  0.06003206  0.71643231  0.28884070    -0.70900
O601        O  0.06146865  0.78238893  0.21451779    -0.71100
V602        V  0.11246410  0.75178003  0.25425518     1.35200
V603        V  0.06186413  0.74970985  0.25189583     1.35200
C604        C  0.08797867  0.79358884  0.20174475     0.78300
C605        C  0.08604821  0.70697288  0.30361101     0.78400
C606        C  0.08878693  0.70580427  0.20536207     0.78300
C607        C  0.08511576  0.79640783  0.30031687     0.78200
C608        C  0.06919652  0.96944458  0.50047968    -0.01600
C609        C  0.10128299  0.86005694  0.37581699    -0.11000
C610        C  0.07082929  0.87450919  0.37752168     0.11600
C611        C  0.04653312  0.86537492  0.35143256    -0.02800
C612        C  0.05267628  0.83994088  0.32722521    -0.05600
C613        C  0.08256915  0.82421174  0.32644639    -0.16300
C614        C  0.10800546  0.83564857  0.35012598     0.02600
C615        C  0.06630143  0.89968832  0.40616833     0.12500
C616        C  0.01423548  0.88193477  0.34624918     0.63200
H617        H  0.03367702  0.83270342  0.30796248     0.12600
C618        C  0.14210013  0.82270781  0.34853070     0.55300
H619        H  0.11991672  0.86825761  0.39500802     0.08400
C620        C  0.04609127  0.89440592  0.43677943    -0.05400
C621        C  0.04519699  0.91906672  0.46341323    -0.06200
C622        C  0.06225243  0.95013624  0.46102662    -0.15800
C623        C  0.07442062  0.95659929  0.42411031    -0.01400
C624        C  0.08343849  0.92952335  0.40304531    -0.08900
C625        C  0.02942893  0.86120594  0.44434517     0.65400
H626        H  0.03291818  0.91232603  0.48823768     0.10000
C627        C  0.05824870  0.97980447  0.39648567     0.63800
H628        H  0.09802709  0.93350096  0.37863091     0.08200
F629        F  0.14130595  0.78943573  0.35510835    -0.19300
F630        F  0.16256563  0.83698462  0.37445473    -0.15500
F631        F  0.15517137  0.82938076  0.31428056    -0.19000
F632        F  0.00898873  0.90602761  0.37134319    -0.22400
F633        F  0.98916306  0.85883943  0.34910250    -0.23900
F634        F  0.01313928  0.89597812  0.31150485    -0.17800
F635        F  0.07795900  0.98598089  0.36654906    -0.20300
F636        F  0.05068819  0.00950733  0.41004048    -0.21500
F637        F  0.03036872  0.96492638  0.38296527    -0.18700
F638        F  0.01895395  0.85809922  0.48029454    -0.18800
F639        F  0.05057555  0.83622903  0.43835580    -0.22600
F640        F  0.00270939  0.85707426  0.42168148    -0.24200
C641        C  0.09760719  0.88738184  0.05391879    -0.11000
C642        C  0.07485326  0.88570453  0.08158308     0.11600
C643        C  0.04910109  0.90701475  0.07996190    -0.02800
C644        C  0.05014363  0.93276669  0.05385630    -0.05600
C645        C  0.07506555  0.93924963  0.02795046    -0.16300
C646        C  0.09696456  0.91126141  0.02534429     0.02600
C647        C  0.07847916  0.86108777  0.11154000     0.12500
C648        C  0.02008893  0.90187862  0.10519527     0.63200
H649        H  0.03053854  0.94761348  0.05433316     0.12600
C650        C  0.11696007  0.89948169  0.99313327     0.55300
H651        H  0.11525023  0.86821200  0.05394104     0.08400
C652        C  0.07331040  0.82704598  0.10637643    -0.05400
C653        C  0.07859558  0.80570750  0.13625626    -0.06200
C654        C  0.08765214  0.81730994  0.17098379    -0.15800
C655        C  0.09295244  0.85117092  0.17619043    -0.01400
C656        C  0.08908211  0.87250050  0.14595041    -0.08900
C657        C  0.06201619  0.81181592  0.07049684     0.65400
H658        H  0.07453393  0.77963554  0.13277369     0.10800
C659        C  0.10170317  0.86462594  0.21370784     0.63800
H660        H  0.09365822  0.89850711  0.14906694     0.08200
F661        F  0.10131571  0.87262545  0.97806898    -0.19300
F662        F  0.14648310  0.88827588  0.00526738    -0.15500
F663        F  0.12281145  0.92207190  0.96606458    -0.19000
F664        F  0.02949326  0.90536927  0.14147309    -0.22400
F665        F  0.00681145  0.87081475  0.10042996    -0.23900
F666        F  0.99614148  0.92399447  0.09789608    -0.17800
F667        F  0.07797829  0.85529109  0.23868992    -0.20300
F668        F  0.10423884  0.89842428  0.21317389    -0.21500
F669        F  0.13114597  0.85261409  0.22528987    -0.18700
F670        F  0.03633067  0.79009971  0.07722073    -0.18800
F671        F  0.08727913  0.79491930  0.05575049    -0.22600
F672        F  0.05161075  0.83436892  0.04474846    -0.24200
C673        C  0.05456236  0.58650173  0.42029900    -0.11000
C674        C  0.08490608  0.59868122  0.40865036     0.11600
C675        C  0.11205471  0.59120115  0.43133675    -0.02800
C676        C  0.10705482  0.56936426  0.46153865    -0.05600
C677        C  0.07599325  0.55584706  0.47170465    -0.16300
C678        C  0.05199484  0.57795013  0.45764138     0.02600
C679        C  0.08552340  0.62543463  0.38012825     0.12500
C680        C  0.14612263  0.60514818  0.42497411     0.63200
H681        H  0.12830115  0.56108460  0.47445450     0.12600
C682        C  0.04113229  0.60816592  0.47850128     0.55300
H683        H  0.03339617  0.59611871  0.40649586     0.08400
C684        C  0.07208542  0.62209549  0.34415302    -0.05400
C685        C  0.07146908  0.64980452  0.32083164    -0.06200
C686        C  0.08537720  0.67998285  0.33112676    -0.15800
C687        C  0.09797735  0.68366764  0.36704136    -0.01400
C688        C  0.09679852  0.65660526  0.39127060    -0.08900
C689        C  0.05810759  0.59051522  0.32830265     0.65400
H690        H  0.06081058  0.64754622  0.29362265     0.10800
C691        C  0.11197988  0.71622386  0.37986840     0.63800
H692        H  0.10489526  0.65960694  0.41937299     0.08200
F693        F  0.04826634  0.63709736  0.45945889    -0.19300
F694        F  0.05655872  0.61159687  0.51161745    -0.15500
F695        F  0.00799446  0.60712578  0.48298018    -0.19000
F696        F  0.15209131  0.63078076  0.44861133    -0.22400
F697        F  0.15072848  0.61588006  0.38917240    -0.23900
F698        F  0.16865769  0.58167203  0.43227146    -0.17800
F699        F  0.11958982  0.71565989  0.41697047    -0.20300
F700        F  0.08972582  0.74041578  0.37369183    -0.21500
F701        F  0.14009641  0.72374609  0.36073783    -0.18700
F702        F  0.07297103  0.58466335  0.29518924    -0.18800
F703        F  0.02520347  0.59377945  0.32203906    -0.22600
F704        F  0.06231218  0.56350846  0.35062984    -0.24200
C705        C  0.04945541  0.58484418  0.09282351    -0.11000
C706        C  0.07750843  0.60411742  0.09585324     0.11600
C707        C  0.10219865  0.59943089  0.07042733    -0.02800
C708        C  0.09890619  0.57332016  0.04551518    -0.05600
C709        C  0.07030150  0.55327667  0.03965910    -0.16300
C710        C  0.04318860  0.56550983  0.06133995     0.02600
C711        C  0.07947686  0.63066186  0.12383676     0.12500
C712        C  0.13067989  0.62380137  0.06743128     0.63200
H713        H  0.11804300  0.57219992  0.02692523     0.12600
C714        C  0.00794976  0.56994480  0.05024009     0.55300
H715        H  0.02983012  0.59005519  0.11138651     0.08400
C716        C  0.06451402  0.66131497  0.11887550    -0.05400
C717        C  0.06946086  0.68541806  0.14564262    -0.06200
C718        C  0.08854177  0.68011998  0.17705207    -0.15800
C719        C  0.10326480  0.64956815  0.18229617    -0.01400
C720        C  0.09772302  0.62508062  0.15591702    -0.08900
C721        C  0.04171760  0.66831658  0.08700556     0.65400
H722        H  0.05774564  0.70867168  0.14270147     0.10800
C723        C  0.12429403  0.64270657  0.21572609     0.63800
H724        H  0.10764361  0.60120522  0.16000419     0.08200
F725        F  0.00120078  0.60276606  0.04837891    -0.19300
F726        F  0.98740161  0.55658187  0.07630578    -0.15500
F727        F  0.00048743  0.55787314  0.01698809    -0.19000
F728        F  0.14689126  0.62591070  0.10052290    -0.22400
F729        F  0.11950196  0.65433297  0.05815688    -0.23900
F730        F  0.15264059  0.61532336  0.04097814    -0.17800
F731        F  0.13359105  0.61051139  0.21739135    -0.20300
F732        F  0.10745138  0.64892469  0.24735076    -0.21500
F733        F  0.15202346  0.66250582  0.21447470    -0.18700
F734        F  0.03294513  0.70071300  0.08563667    -0.18800
F735        F  0.01373693  0.64941387  0.09113322    -0.22600
F736        F  0.05611786  0.66154881  0.05405918    -0.24200
C737        C  0.41179493  0.97873635  0.39022533    -0.11000
C738        C  0.44420493  0.49208292  0.37639405     0.11600
C739        C  0.44917500  0.49650526  0.33811214    -0.02800
C740        C  0.42210492  0.49423594  0.31426764    -0.05600
C741        C  0.38838181  0.98117967  0.32879469    -0.16300
C742        C  0.38431470  0.97599608  0.36705406     0.02600
C743        C  0.47087045  0.49361515  0.40442749     0.12500
C744        C  0.48229819  0.50235368  0.32086429     0.63200
H745        H  0.42555409  0.49809953  0.28500583     0.12600
C746        C  0.35181476  0.96861832  0.38519567     0.55300
H747        H  0.40876054  0.97511742  0.41958691     0.08400
C748        C  0.48101453  0.52292080  0.42083270    -0.05400
C749        C  0.50416797  0.52190377  0.44978476    -0.06200
C750        C  0.51668123  0.99073694  0.46600905    -0.15800
C751        C  0.49617572  0.96177223  0.45638413    -0.01400
C752        C  0.47877985  0.96099547  0.42271302    -0.08900
C753        C  0.46496014  0.55471545  0.40989417     0.65400
H754        H  0.50768720  0.54358202  0.46312532     0.10800
C755        C  0.97768645  0.94281269  0.48216831     0.63800
H756        H  0.46663245  0.93848046  0.41404137     0.08200
F757        F  0.34446356  0.99415164  0.40785497    -0.19300
F758        F  0.35386697  0.94037690  0.40630266    -0.15500
F759        F  0.32657468  0.96419116  0.36040226    -0.19000
F760        F  0.49223498  0.47353014  0.30583456    -0.22400
F761        F  0.50560636  0.51310845  0.34562456    -0.23900
F762        F  0.48040982  0.52580472  0.29322561    -0.17800
F763        F  0.94563567  0.95096922  0.48708339    -0.20300
F764        F  0.99104048  0.93926599  0.51607405    -0.21500
F765        F  0.97721398  0.91262149  0.46552210    -0.18700
F766        F  0.47582158  0.58065613  0.43078651    -0.18800
F767        F  0.43175922  0.55151872  0.41474573    -0.22600
F768        F  0.47115873  0.56231428  0.37349839    -0.24200
C769        C  0.49088634  0.49147377  0.10102881    -0.11000
C770        C  0.45906428  0.99045025  0.09038477     0.11600
C771        C  0.45250408  0.99457703  0.05297966    -0.02800
C772        C  0.47863914  0.99538952  0.02822038    -0.05600
C773        C  0.51301738  0.99350974  0.03745778    -0.16300
C774        C  0.51750884  0.49347625  0.07699178     0.02600
C775        C  0.43350841  0.99116404  0.11878044     0.12500
C776        C  0.41790426  0.00025143  0.03942194     0.63200
H777        H  0.47038292  0.99983048  0.00103540     0.12600
C778        C  0.05073619  0.49457981  0.09775264     0.55300
H779        H  0.49498228  0.48935259  0.13048624     0.08400
C780        C  0.41383518  0.96355989  0.12849524    -0.05400
C781        C  0.39102507  0.96662910  0.15644701    -0.06200
C782        C  0.38761227  0.99582358  0.17586948    -0.15800
C783        C  0.40903928  0.52866861  0.16422448    -0.01400
C784        C  0.43169767  0.52465090  0.13612083    -0.08900
C785        C  0.41606009  0.93003649  0.11147863     0.65400
H786        H  0.37571140  0.94546395  0.16321425     0.10800
C787        C  0.40889969  0.56095197  0.18430215     0.63800
H788        H  0.44853109  0.54444800  0.12899598     0.08200
F789        F  0.05224331  0.46710142  0.12012283    -0.19300
F790        F  0.05608263  0.52163983  0.11936598    -0.15500
F791        F  0.07302229  0.49339717  0.07199511    -0.19000
F792        F  0.40595001  0.02741395  0.05627085    -0.22400
F793        F  0.39808642  0.97347102  0.04777182    -0.23900
F794        F  0.41610711  0.00553496  0.00181268    -0.17800
F795        F  0.41409590  0.55561319  0.22146689    -0.20300
F796        F  0.37944045  0.57568815  0.17875631    -0.21500
F797        F  0.43302010  0.58254803  0.17193358    -0.18700
F798        F  0.38581342  0.92020726  0.09823460    -0.18800
F799        F  0.42563010  0.90792688  0.13823735    -0.22600
F800        F  0.43769200  0.92909140  0.08283613    -0.24200
C801        C  0.17904939  0.97458454  0.44540410    -0.11000
C802        C  0.17977048  0.49248511  0.41567129     0.11600
C803        C  0.15084750  0.50871760  0.40957713    -0.02800
C804        C  0.12693854  0.50772687  0.43730839    -0.05600
C805        C  0.12539669  0.99099559  0.47077087    -0.16300
C806        C  0.15642321  0.97356334  0.47426215     0.02600
C807        C  0.20604367  0.49229721  0.38783531     0.12500
C808        C  0.14602230  0.52801246  0.37389400     0.63200
H809        H  0.10548821  0.51928819  0.43074391     0.12600
C810        C  0.17035611  0.95449176  0.50698746     0.55300
H811        H  0.20235763  0.96310949  0.44866263     0.08400
C812        C  0.23500211  0.51161835  0.39126867    -0.05400
C813        C  0.25661501  0.51332838  0.36165364    -0.06200
C814        C  0.24704683  0.98982294  0.32894659    -0.15800
C815        C  0.21932132  0.96835950  0.32717822    -0.01400
C816        C  0.19641740  0.96907993  0.35560589    -0.08900
C817        C  0.24405436  0.52908077  0.42648937     0.65400
H818        H  0.27900461  0.52772253  0.36384164     0.10800
C819        C  0.21298849  0.94572761  0.29501393     0.63800
H820        H  0.17530906  0.95268180  0.35523299     0.08200
F821        F  0.19503177  0.97212674  0.52387765    -0.19300
F822        F  0.18455573  0.92638189  0.49506274    -0.15500
F823        F  0.14992319  0.94796322  0.03765306    -0.19000
F824        F  0.14371669  0.50718420  0.34443180    -0.22400
F825        F  0.17191053  0.54969158  0.36823291    -0.23900
F826        F  0.11821135  0.54572663  0.37430009    -0.17800
F827        F  0.23563320  0.92147160  0.29507886    -0.20300
F828        F  0.21478676  0.96336211  0.26235994    -0.21500
F829        F  0.18246028  0.93071806  0.29667842    -0.18700
F830        F  0.27037673  0.55047443  0.42181702    -0.18800
F831        F  0.25218113  0.50627467  0.45306460    -0.22600
F832        F  0.21844353  0.54683560  0.43857891    -0.24200
C833        C  0.14818538  0.02428555  0.10319304    -0.11000
C834        C  0.17791282  0.53802267  0.09161083     0.11600
C835        C  0.18151082  0.54264093  0.05372359    -0.02800
C836        C  0.15672148  0.53061191  0.02969777    -0.05600
C837        C  0.12908935  0.00847394  0.03988662    -0.16300
C838        C  0.12988438  0.00290623  0.08034145     0.02600
C839        C  0.20624880  0.53459998  0.11760074     0.12500
C840        C  0.21141813  0.55987103  0.03763309     0.63200
H841        H  0.16178523  0.53653084  0.00162627     0.12600
C842        C  0.12495318  0.97134417  0.10309053     0.55300
H843        H  0.14535551  0.02233673  0.13278565     0.08400
C844        C  0.21061470  0.55381997  0.14938391    -0.05400
C845        C  0.23334845  0.54443450  0.17631423    -0.06200
C846        C  0.25168982  0.01132866  0.17278123    -0.15800
C847        C  0.24547413  0.99108442  0.14199627    -0.01400
C848        C  0.22250974  0.00099262  0.11543034    -0.08900
C849        C  0.19247821  0.58495903  0.15407053     0.65400
H850        H  0.23639933  0.55877782  0.20091873     0.10800
C851        C  0.26312863  0.95949294  0.13651972     0.63800
H852        H  0.21647329  0.98518384  0.09275292     0.08200
F853        F  0.10885471  0.97737491  0.13544571    -0.19300
F854        F  0.15495428  0.95903569  0.11242882    -0.15500
F855        F  0.10830439  0.94739401  0.08613522    -0.19000
F856        F  0.23052550  0.53740226  0.02082324    -0.22400
F857        F  0.22992339  0.57576494  0.06413229    -0.23900
F858        F  0.20224060  0.58294848  0.01176598    -0.17800
F859        F  0.25455802  0.93712274  0.16379388    -0.20300
F860        F  0.29632759  0.96558832  0.13753907    -0.21500
F861        F  0.25549704  0.94552418  0.10300779    -0.18700
F862        F  0.20011332  0.60013743  0.18689124    -0.18800
F863        F  0.15955439  0.57826901  0.15349726    -0.22600
F864        F  0.20067839  0.60628530  0.12572785    -0.24200
C865        C  0.10047044  0.99824039  0.50471741    -0.01600
O866        O  0.35594624  0.51906586  0.79193153    -0.70900
O867        O  0.29047034  0.53219035  0.71985047    -0.71100
O868        O  0.29079638  0.52452403  0.79340430    -0.71000
O869        O  0.35492160  0.52569318  0.71878624    -0.71000
O870        O  0.34969782  0.97298355  0.71302946    -0.71000
O871        O  0.28543361  0.96817501  0.78608044    -0.71000
O872        O  0.28496941  0.97655589  0.71240598    -0.70900
O873        O  0.35065942  0.96572481  0.78619237    -0.71100
V874        V  0.32286169  0.52435832  0.75599204     1.35200
V875        V  0.31768200  0.97186237  0.74962833     1.35200
C876        C  0.36481051  0.99058765  0.80002872     0.78300
C877        C  0.27582335  0.00481335  0.70308634     0.78400
C878        C  0.27688390  0.99318449  0.80279043     0.78300
C879        C  0.36209020  0.99991089  0.70217210     0.78200
C880        C  0.04221275  0.99888307  0.00145537    -0.01600
C881        C  0.07232020  0.52798565  0.50472827    -0.01600
O882        O  0.11463349  0.78222325  0.71507411    -0.70900
O883        O  0.11410945  0.71966093  0.79368809    -0.71100
O884        O  0.11547076  0.71637344  0.72020107    -0.71000
O885        O  0.11376774  0.78570706  0.78883100    -0.71000
O886        O  0.06120062  0.78317425  0.78780787    -0.71000
O887        O  0.06275865  0.71504390  0.71800652    -0.71000
O888        O  0.06139586  0.71712163  0.79124539    -0.70900
O889        O  0.06188067  0.78018344  0.71421373    -0.71100
V890        V  0.11350936  0.75099113  0.75448525     1.35200
V891        V  0.06286716  0.74898998  0.75300589     1.35200
C892        C  0.08816811  0.79164991  0.70120262     0.78300
C893        C  0.08755805  0.70704061  0.80496837     0.78400
C894        C  0.08938686  0.70395053  0.70739543     0.78300
C895        C  0.08721444  0.79656882  0.79989135     0.78200
C896        C  0.07191548  0.97020417  0.99940083    -0.01600
C897        C  0.10509489  0.85866732  0.87637791    -0.11000
C898        C  0.07592914  0.87548340  0.87642293     0.11600
C899        C  0.05225339  0.86856398  0.84886113    -0.02800
C900        C  0.05747611  0.84301112  0.82450885    -0.05600
C901        C  0.08579668  0.82471498  0.82559693    -0.16300
C902        C  0.11093677  0.83390210  0.85085720     0.02600
C903        C  0.07176036  0.90045573  0.90526107     0.12500
C904        C  0.02173116  0.88780680  0.84245001     0.63200
H905        H  0.03901727  0.83748361  0.80393604     0.12600
C906        C  0.14383213  0.81818753  0.85112356     0.55300
H907        H  0.12335304  0.86523414  0.89675487     0.08400
C908        C  0.05156266  0.89473024  0.93564886    -0.05400
C909        C  0.04986241  0.91931672  0.96219398    -0.06200
C910        C  0.06659392  0.95058984  0.96005885    -0.15800
C911        C  0.07903938  0.95757367  0.92332616    -0.01400
C912        C  0.08794865  0.93073488  0.90173273    -0.08900
C913        C  0.03505508  0.86132543  0.94228034     0.65400
H914        H  0.03706715  0.91246877  0.98667735     0.10000
C915        C  0.06421510  0.98237378  0.89642630     0.63800
H916        H  0.10208269  0.93493849  0.87702888     0.08200
F917        F  0.14004579  0.78496175  0.85674321    -0.19300
F918        F  0.16397115  0.83025252  0.87870207    -0.15500
F919        F  0.15908650  0.82433247  0.81795099    -0.19000
F920        F  0.01599942  0.90986252  0.86967896    -0.22400
F921        F  0.99504001  0.86660363  0.84040007    -0.23900
F922        F  0.02457981  0.90468883  0.80941625    -0.17800
F923        F  0.08382201  0.98780762  0.86626380    -0.20300
F924        F  0.05853845  0.01227737  0.91055962    -0.21500
F925        F  0.03541435  0.96966591  0.88314426    -0.18700
F926        F  0.02067386  0.85887103  0.97646089    -0.18800
F927        F  0.05755423  0.83698293  0.94038599    -0.22600
F928        F  0.01125573  0.85565194  0.91607666    -0.24200
C929        C  0.09417795  0.88460185  0.55177327    -0.11000
C930        C  0.07310417  0.88325467  0.58093051     0.11600
C931        C  0.04854804  0.90590333  0.58217658    -0.02800
C932        C  0.04850037  0.93161089  0.55582356    -0.05600
C933        C  0.07248147  0.93796575  0.52853036    -0.16300
C934        C  0.09346857  0.90936349  0.52423005     0.02600
C935        C  0.07819785  0.85849156  0.61040071     0.12500
C936        C  0.02263995  0.90293098  0.61177388     0.63200
H937        H  0.02864369  0.94616965  0.55712512     0.12600
C938        C  0.11309135  0.89820383  0.49145002     0.55300
H939        H  0.11124417  0.86497651  0.55039045     0.08400
C940        C  0.06672571  0.82571369  0.60751333    -0.05400
C941        C  0.07077835  0.80456370  0.63789787    -0.06200
C942        C  0.08727770  0.81479342  0.66981446    -0.15800
C943        C  0.10041792  0.84702039  0.67178543    -0.01400
C944        C  0.09552893  0.86845835  0.64184935    -0.08900
C945        C  0.05110919  0.81291970  0.57234953     0.65400
H946        H  0.06140340  0.77959876  0.63687313     0.10800
C947        C  0.11841690  0.85897900  0.70578909     0.63800
H948        H  0.10478740  0.89346309  0.64288076     0.08200
F949        F  0.09719441  0.87187790  0.47554272    -0.19300
F950        F  0.14259916  0.88644660  0.50303025    -0.15500
F951        F  0.11897841  0.92153720  0.46526322    -0.19000
F952        F  0.03679322  0.90601678  0.64615661    -0.22400
F953        F  0.00660245  0.87293193  0.61000026    -0.23900
F954        F  0.99972986  0.92661655  0.60798555    -0.17800
F955        F  0.09866477  0.85514635  0.73616516    -0.20300
F956        F  0.12765354  0.89167378  0.70269004    -0.21500
F957        F  0.14614186  0.84123537  0.71117008    -0.18700
F958        F  0.03983400  0.78091568  0.57647484    -0.18800
F959        F  0.07368585  0.81395254  0.54447884    -0.22600
F960        F  0.02516075  0.83165705  0.56197401    -0.24200
C961        C  0.05383481  0.58587464  0.91878915    -0.11000
C962        C  0.08437252  0.59643740  0.90615652     0.11600
C963        C  0.11159993  0.58840167  0.92838410    -0.02800
C964        C  0.10627506  0.56820036  0.95980758    -0.05600
C965        C  0.07506237  0.55576030  0.97072380    -0.16300
C966        C  0.05153397  0.57818638  0.95632775     0.02600
C967        C  0.08533527  0.62373425  0.87849324     0.12500
C968        C  0.14609983  0.60064892  0.92086095     0.63200
H969        H  0.12737447  0.56036624  0.97329778     0.12600
C970        C  0.04092376  0.60880814  0.97646577     0.55300
H971        H  0.03296631  0.59644160  0.90533327     0.08400
C972        C  0.07102959  0.62192316  0.84282060    -0.05400
C973        C  0.07155462  0.65016599  0.82040835    -0.06200
C974        C  0.08679276  0.67946048  0.83153185    -0.15800
C975        C  0.10016408  0.68165751  0.86720905    -0.01400
C976        C  0.09811518  0.65407947  0.89048512    -0.08900
C977        C  0.05487601  0.59164933  0.82628274     0.65400
H978        H  0.06047552  0.64909682  0.79330087     0.10800
C979        C  0.11585414  0.71313008  0.88085022     0.63800
H980        H  0.10677799  0.65597542  0.91851556     0.08200
F981        F  0.04909616  0.63734608  0.95718507    -0.19300
F982        F  0.05572875  0.61230392  0.00986065    -0.15500
F983        F  0.00768633  0.60845380  0.98005518    -0.19000
F984        F  0.15453107  0.62489845  0.94548006    -0.22400
F985        F  0.15010373  0.61257419  0.88542621    -0.23900
F986        F  0.16729969  0.57558585  0.92578525    -0.17800
F987        F  0.12515445  0.71081572  0.91740525    -0.20300
F988        F  0.09415636  0.73816228  0.87729010    -0.21500
F989        F  0.14328431  0.72047739  0.86042591    -0.18700
F990        F  0.07019400  0.58454898  0.79381041    -0.18800
F991        F  0.02269460  0.59792039  0.81859434    -0.22600
F992        F  0.05579897  0.56427859  0.84862264    -0.24200
C993        C  0.05233569  0.58370706  0.59467245    -0.11000
C994        C  0.08075155  0.60253578  0.59767722     0.11600
C995        C  0.10502221  0.59776911  0.57174775    -0.02800
C996        C  0.10095659  0.57202970  0.54659692    -0.05600
C997        C  0.07209501  0.55238795  0.54070318    -0.16300
C998        C  0.04544030  0.56455710  0.56314213     0.02600
C999        C  0.08263461  0.62903197  0.62556806     0.12500
C1000       C  0.13442020  0.62075392  0.56662130     0.63200
H1001       H  0.12032285  0.57102763  0.52824620     0.12600
C1002       C  0.00993574  0.56876542  0.55307712     0.55300
H1003       H  0.03291947  0.58921949  0.61341435     0.08400
C1004       C  0.06898719  0.66018397  0.61944933    -0.05400
C1005       C  0.07168958  0.68361940  0.64717914    -0.06200
C1006       C  0.08942465  0.67804323  0.67944349    -0.15800
C1007       C  0.10521266  0.64799909  0.68449463    -0.01400
C1008       C  0.10033495  0.62342029  0.65805381    -0.08900
C1009       C  0.05160292  0.66908699  0.58404944     0.65400
H1010       H  0.06017551  0.70693675  0.64370633     0.10800
C1011       C  0.12702375  0.64196033  0.71748189     0.63800
H1012       H  0.11074019  0.59971008  0.66219152     0.08200
F1013       F  0.00270693  0.60143205  0.55184997    -0.19300
F1014       F  0.99005159  0.55492524  0.57945724    -0.15500
F1015       F  0.00197472  0.55709732  0.51983243    -0.19000
F1016       F  0.13699262  0.64531157  0.59215359    -0.22400
F1017       F  0.13275588  0.63519123  0.53210751    -0.23900
F1018       F  0.16229974  0.60320877  0.56874083    -0.17800
F1019       F  0.13908344  0.61075766  0.71776436    -0.20300
F1020       F  0.10988365  0.64582947  0.74945143    -0.21500
F1021       F  0.15312905  0.66394249  0.71675443    -0.18700
F1022       F  0.04479364  0.70199018  0.58203151    -0.18800
F1023       F  0.02259788  0.65171629  0.58209480    -0.22600
F1024       F  0.07059726  0.66220820  0.55424846    -0.24200
C1025       C  0.41421355  0.98134941  0.88776929    -0.11000
C1026       C  0.44659609  0.48672031  0.87449644     0.11600
C1027       C  0.45110162  0.48979774  0.83605518    -0.02800
C1028       C  0.42340977  0.49059487  0.81300765    -0.05600
C1029       C  0.39216549  0.98769909  0.82620223    -0.16300
C1030       C  0.38720846  0.98092045  0.86388975     0.02600
C1031       C  0.47361806  0.48920898  0.90207574     0.12500
C1032       C  0.48464374  0.48980431  0.81916991     0.63200
H1033       H  0.42617251  0.49393936  0.78361446     0.12600
C1034       C  0.35337049  0.97433504  0.87877293     0.55300
H1035       H  0.41085407  0.97689814  0.91691317     0.08400
C1036       C  0.48308102  0.51906339  0.91802503    -0.05400
C1037       C  0.50504681  0.51887151  0.94823436    -0.06200
C1038       C  0.51660577  0.99059503  0.96660451    -0.15800
C1039       C  0.49714800  0.96158835  0.95500047    -0.01400
C1040       C  0.48115307  0.96162087  0.92049308    -0.08900
C1041       C  0.46751951  0.55072691  0.90543455     0.65400
H1042       H  0.50782557  0.54085758  0.96132036     0.10800
C1043       C  0.98058789  0.94112815  0.98001556     0.63800
H1044       H  0.46991900  0.93920663  0.91021677     0.08200
F1045       F  0.33446923  0.00108893  0.87173780    -0.19300
F1046       F  0.35372071  0.96850784  0.91632057    -0.15500
F1047       F  0.33946030  0.94724767  0.86193680    -0.19000
F1048       F  0.49789437  0.45964818  0.82533617    -0.22400
F1049       F  0.50474250  0.51359560  0.83441613    -0.23900
F1050       F  0.48353121  0.49533357  0.78158128    -0.17800
F1051       F  0.94826885  0.94872389  0.98406892    -0.20300
F1052       F  0.99340409  0.93895882  0.01418450    -0.21500
F1053       F  0.98109933  0.91045829  0.96460563    -0.18700
F1054       F  0.47677854  0.57682489  0.92700517    -0.18800
F1055       F  0.43408560  0.54755082  0.90736215    -0.22600
F1056       F  0.47613090  0.55826430  0.86970268    -0.24200
C1057       C  0.49069616  0.49183017  0.60148589    -0.11000
C1058       C  0.45971396  0.99372257  0.58911089     0.11600
C1059       C  0.45332647  0.99758619  0.55170558    -0.02800
C1060       C  0.47956906  0.99827419  0.52726429    -0.05600
C1061       C  0.51387360  0.99561647  0.53659030    -0.16300
C1062       C  0.51724516  0.49476448  0.57734274     0.02600
C1063       C  0.43386312  0.99467792  0.61697077     0.12500
C1064       C  0.41871840  0.00271527  0.53768977     0.63200
H1065       H  0.47135875  0.00306926  0.50019202     0.12600
C1066       C  0.05104686  0.49253033  0.59765121     0.55300
H1067       H  0.49489442  0.49042382  0.63096975     0.08400
C1068       C  0.41422055  0.96710531  0.62677238    -0.05400
C1069       C  0.39098405  0.97050004  0.65416391    -0.06200
C1070       C  0.38678675  0.00015126  0.67250749    -0.15800
C1071       C  0.40384900  0.52723935  0.65935129    -0.01400
C1072       C  0.42652553  0.52330986  0.63133363    -0.08900
C1073       C  0.41670049  0.93341090  0.61016601     0.65400
H1074       H  0.37597697  0.94922719  0.66136689     0.10800
C1075       C  0.39805632  0.56150011  0.67293924     0.63800
H1076       H  0.43961677  0.54438655  0.62012569     0.08200
F1077       F  0.05252680  0.46433948  0.61890759    -0.19300
F1078       F  0.05592926  0.51896489  0.62035421    -0.15500
F1079       F  0.07357815  0.49254337  0.57199254    -0.19000
F1080       F  0.40592700  0.02943415  0.55459665    -0.22400
F1081       F  0.39938674  0.97544788  0.54544153    -0.23900
F1082       F  0.41721043  0.00828901  0.50011161    -0.17800
F1083       F  0.40588523  0.56336011  0.70988366    -0.20300
F1084       F  0.36588213  0.56913325  0.66736871    -0.21500
F1085       F  0.41690098  0.58492872  0.65458263    -0.18700
F1086       F  0.38678790  0.92379424  0.59579339    -0.18800
F1087       F  0.42520769  0.91133582  0.63743387    -0.22600
F1088       F  0.43923239  0.93206439  0.58244630    -0.24200
C1089       C  0.18372256  0.97301816  0.95046510    -0.11000
C1090       C  0.17755514  0.49692593  0.91486856     0.11600
C1091       C  0.14654303  0.50857190  0.90785640    -0.02800
C1092       C  0.12335474  0.50704879  0.93634935    -0.05600
C1093       C  0.12943572  0.99118954  0.97280436    -0.16300
C1094       C  0.16016896  0.97348185  0.97846376     0.02600
C1095       C  0.20368096  0.49787006  0.88698408     0.12500
C1096       C  0.13850139  0.52336484  0.87036984     0.63200
H1097       H  0.10055683  0.51641552  0.93016476     0.12600
C1098       C  0.17328780  0.95635495  0.01295621     0.55300
H1099       H  0.20672732  0.96129142  0.95509514     0.08400
C1100       C  0.23098399  0.51984528  0.88824677    -0.05400
C1101       C  0.25367834  0.51927310  0.85974301    -0.06200
C1102       C  0.25232154  0.99039967  0.83233027    -0.15800
C1103       C  0.22555681  0.96767959  0.83129974    -0.01400
C1104       C  0.20364224  0.96672486  0.86073318    -0.08900
C1105       C  0.23805398  0.54420243  0.91855468     0.65400
H1106       H  0.27444659  0.53615288  0.86045274     0.10800
C1107       C  0.21897755  0.94560053  0.79868482     0.63800
H1108       H  0.18299857  0.94972718  0.86054656     0.08200
F1109       F  0.19665867  0.97570280  0.02974160    -0.19300
F1110       F  0.18898039  0.92818797  0.00395415    -0.15500
F1111       F  0.14774291  0.94570484  0.53245964    -0.19000
F1112       F  0.13791024  0.49937540  0.84405583    -0.22400
F1113       F  0.16154018  0.54702317  0.86054530    -0.23900
F1114       F  0.10873162  0.53778038  0.87008615    -0.17800
F1115       F  0.24230480  0.92206451  0.79725409    -0.20300
F1116       F  0.21936211  0.96395081  0.76646927    -0.21500
F1117       F  0.18894025  0.92967113  0.80097525    -0.18700
F1118       F  0.23823528  0.57552065  0.90380437    -0.18800
F1119       F  0.26836125  0.53846151  0.93355133    -0.22600
F1120       F  0.21593597  0.54252113  0.94668876    -0.24200
C1121       C  0.15048246  0.02044647  0.60100316    -0.11000
C1122       C  0.18004372  0.53523415  0.59053992     0.11600
C1123       C  0.18349451  0.53950903  0.55260156    -0.02800
C1124       C  0.15796994  0.52855720  0.52907562    -0.05600
C1125       C  0.12852311  0.00636843  0.53845462    -0.16300
C1126       C  0.13091110  0.99985321  0.57861776     0.02600
C1127       C  0.20813965  0.53189471  0.61656319     0.12500
C1128       C  0.21333628  0.55608095  0.53563256     0.63200
H1129       H  0.16259387  0.53474679  0.50091989     0.12600
C1130       C  0.12670839  0.96779396  0.60054934     0.55300
H1131       H  0.14848639  0.01843663  0.63069271     0.08400
C1132       C  0.21459048  0.55375894  0.64562492    -0.05400
C1133       C  0.23684071  0.54492062  0.67340483    -0.06200
C1134       C  0.25206445  0.01078085  0.67242709    -0.15800
C1135       C  0.24573469  0.98864082  0.64326386    -0.01400
C1136       C  0.22398544  0.99766329  0.61493495    -0.08900
C1137       C  0.19870782  0.58662161  0.64681378     0.65400
H1138       H  0.24191308  0.56158400  0.69567513     0.10800
C1139       C  0.26156691  0.95563658  0.64166119     0.63800
H1140       H  0.21791302  0.98063490  0.59330637     0.08200
F1141       F  0.11276745  0.97315960  0.63435304    -0.19300
F1142       F  0.15688733  0.95464096  0.60694705    -0.15500
F1143       F  0.10851918  0.94471538  0.58413597    -0.19000
F1144       F  0.22916544  0.53406462  0.51434509    -0.22400
F1145       F  0.23505013  0.56805604  0.56161652    -0.23900
F1146       F  0.20396716  0.58197152  0.51354421    -0.17800
F1147       F  0.25133576  0.93623543  0.67098978    -0.20300
F1148       F  0.29500783  0.95977602  0.64282365    -0.21500
F1149       F  0.25353401  0.93922725  0.60971694    -0.18700
F1150       F  0.20663387  0.60336198  0.67855696    -0.18800
F1151       F  0.16538713  0.58250625  0.64535008    -0.22600
F1152       F  0.20902811  0.60553480  0.61722626    -0.24200
C1153       C  0.60157747  0.49621559  0.00554044    -0.01600
O1154       O  0.85526792  0.02512119  0.28946810    -0.70900
O1155       O  0.78919289  0.03551773  0.21767677    -0.71100
O1156       O  0.78982631  0.02620514  0.29109852    -0.71000
O1157       O  0.85402537  0.03298070  0.21604009    -0.71000
O1158       O  0.85034883  0.47309840  0.21440658    -0.71000
O1159       O  0.78470080  0.47052103  0.28617951    -0.71000
O1160       O  0.78564285  0.47871954  0.21247443    -0.70900
O1161       O  0.85004240  0.46574123  0.28753504    -0.71100
V1162       V  0.82197600  0.02896840  0.25354712     1.35200
V1163       V  0.81770519  0.47302082  0.25034206     1.35200
C1164       C  0.86434011  0.49015392  0.30221317     0.78300
C1165       C  0.77762732  0.50729170  0.20285926     0.78400
C1166       C  0.77619930  0.49604766  0.30200067     0.78300
C1167       C  0.86433930  0.49957662  0.20456678     0.78200
C1168       C  0.54071941  0.49634128  0.50314573    -0.01600
C1169       C  0.56965243  0.02542478  0.00460287    -0.01600
O1170       O  0.61351750  0.27900389  0.21547727    -0.70900
O1171       O  0.61222938  0.21642272  0.29376169    -0.71100
O1172       O  0.61321248  0.21298555  0.22045852    -0.71000
O1173       O  0.61277614  0.28257068  0.28925225    -0.71000
O1174       O  0.56021834  0.27998822  0.28924168    -0.71000
O1175       O  0.56055268  0.21334593  0.21765347    -0.71000
O1176       O  0.55952638  0.21380327  0.29077290    -0.70900
O1177       O  0.56074085  0.27867881  0.21561047    -0.71100
V1178       V  0.61196001  0.24777194  0.25477685     1.35200
V1179       V  0.56131538  0.24655379  0.25349715     1.35200
C1180       C  0.58719496  0.28943885  0.20232638     0.78300
C1181       C  0.58563067  0.20356338  0.30446541     0.78400
C1182       C  0.58686363  0.20135654  0.20735592     0.78300
C1183       C  0.58636981  0.29342253  0.30088042     0.78200
C1184       C  0.57122671  0.46859352  0.49985829    -0.01600
C1185       C  0.60524046  0.35729529  0.37563321    -0.11000
C1186       C  0.57581631  0.37375168  0.37626496     0.11600
C1187       C  0.55145530  0.36565261  0.34980025    -0.02800
C1188       C  0.55648163  0.33963765  0.32597412    -0.05600
C1189       C  0.58512995  0.32181273  0.32644207    -0.16300
C1190       C  0.61070603  0.33183074  0.35075252     0.02600
C1191       C  0.57165728  0.39877308  0.40526632     0.12500
C1192       C  0.52008852  0.38375117  0.34414561     0.63200
H1193       H  0.53751107  0.33335585  0.30627075     0.12600
C1194       C  0.64357806  0.31604812  0.35085237     0.55300
H1195       H  0.62390967  0.36449160  0.39526309     0.08400
C1196       C  0.55188865  0.39274591  0.43598117    -0.05400
C1197       C  0.55012748  0.41724201  0.46262405    -0.06200
C1198       C  0.56592594  0.44896946  0.46033136    -0.15800
C1199       C  0.57805985  0.45600603  0.42344711    -0.01400
C1200       C  0.58768043  0.42923573  0.40200576    -0.08900
C1201       C  0.53592064  0.35915045  0.44298011     0.65400
H1202       H  0.53788755  0.40996366  0.48727417     0.10000
C1203       C  0.56192220  0.47965226  0.39616141     0.63800
H1204       H  0.60170706  0.43371842  0.37727467     0.08200
F1205       F  0.63982277  0.28292592  0.35756068    -0.19300
F1206       F  0.66415633  0.32877223  0.37764865    -0.15500
F1207       F  0.65832390  0.32134709  0.31723101    -0.19000
F1208       F  0.51503072  0.40701066  0.37020924    -0.22400
F1209       F  0.49399047  0.36172932  0.34510631    -0.23900
F1210       F  0.52069314  0.39904129  0.31003186    -0.17800
F1211       F  0.58185703  0.48643459  0.36658751    -0.20300
F1212       F  0.55378487  0.50901850  0.41013659    -0.21500
F1213       F  0.53427586  0.46498227  0.38197713    -0.18700
F1214       F  0.52341491  0.35604597  0.47806653    -0.18800
F1215       F  0.55832718  0.33496228  0.43903375    -0.22600
F1216       F  0.51075491  0.35384986  0.41836621    -0.24200
C1217       C  0.59848065  0.38343465  0.05361717    -0.11000
C1218       C  0.57565722  0.38079623  0.08118121     0.11600
C1219       C  0.54959840  0.40182631  0.08008481    -0.02800
C1220       C  0.55013387  0.42785147  0.05422418    -0.05600
C1221       C  0.57513436  0.43530686  0.02859561    -0.16300
C1222       C  0.59759806  0.40783840  0.02559709     0.02600
C1223       C  0.58004613  0.35629239  0.11121129     0.12500
C1224       C  0.52117270  0.39670357  0.10628542     0.63200
H1225       H  0.52995215  0.44190564  0.05443850     0.12600
C1226       C  0.61849975  0.39753967  0.99348673     0.55300
H1227       H  0.61707654  0.36524080  0.05376442     0.08400
C1228       C  0.57305715  0.32250303  0.10655808    -0.05400
C1229       C  0.57622632  0.30136518  0.13710358    -0.06200
C1230       C  0.58682362  0.31288819  0.17135048    -0.15800
C1231       C  0.59470438  0.34640171  0.17579671    -0.01400
C1232       C  0.59143409  0.36763273  0.14534991    -0.08900
C1233       C  0.56240334  0.30875423  0.06967867     0.65400
H1234       H  0.57048716  0.27550597  0.13454383     0.10800
C1235       C  0.60544732  0.35960957  0.21282917     0.63800
H1236       H  0.59713258  0.39348288  0.14807042     0.08200
F1237       F  0.60397648  0.37065036  0.97715072    -0.19300
F1238       F  0.64826548  0.38718475  0.00600525    -0.15500
F1239       F  0.62399160  0.42103373  0.96731519    -0.19000
F1240       F  0.53134831  0.40161206  0.14209707    -0.22400
F1241       F  0.50846861  0.36524797  0.10339548    -0.23900
F1242       F  0.49642730  0.41788818  0.09872896    -0.17800
F1243       F  0.63402083  0.34533191  0.22378053    -0.20300
F1244       F  0.58174708  0.35254382  0.23865800    -0.21500
F1245       F  0.61075260  0.39314414  0.21164343    -0.18700
F1246       F  0.55397750  0.27583701  0.07233038    -0.18800
F1247       F  0.58744259  0.31230442  0.04482169    -0.22600
F1248       F  0.53576446  0.32498534  0.05628435    -0.24200
C1249       C  0.55358052  0.08221416  0.41717455    -0.11000
C1250       C  0.58413102  0.09269776  0.40441078     0.11600
C1251       C  0.61143504  0.08500099  0.42664943    -0.02800
C1252       C  0.60622299  0.06499197  0.45815915    -0.05600
C1253       C  0.57500942  0.05275374  0.46902203    -0.16300
C1254       C  0.55159021  0.07531236  0.45485913     0.02600
C1255       C  0.58497588  0.11990595  0.37688341     0.12500
C1256       C  0.64575746  0.09751836  0.41898318     0.63200
H1257       H  0.62730448  0.05694797  0.47152574     0.12600
C1258       C  0.54233968  0.10676787  0.47444811     0.55300
H1259       H  0.53257494  0.09247440  0.40365126     0.08400
C1260       C  0.57055249  0.11794652  0.34135289    -0.05400
C1261       C  0.56997480  0.14643233  0.31940692    -0.06200
C1262       C  0.58495397  0.17585153  0.33066943    -0.15800
C1263       C  0.59880348  0.17800808  0.36608107    -0.01400
C1264       C  0.59735604  0.15031388  0.38906636    -0.08900
C1265       C  0.55567910  0.08711726  0.32461510     0.65400
H1266       H  0.55848401  0.14540852  0.29252587     0.10800
C1267       C  0.61442173  0.20954591  0.37976170     0.63800
H1268       H  0.60605132  0.15224565  0.41705381     0.08200
F1269       F  0.55167059  0.13466102  0.45465942    -0.19300
F1270       F  0.55718150  0.11027349  0.50788031    -0.15500
F1271       F  0.50913129  0.10786979  0.47785823    -0.19000
F1272       F  0.65342771  0.12325087  0.44193444    -0.22400
F1273       F  0.64987080  0.10748938  0.38283362    -0.23900
F1274       F  0.66732458  0.07319543  0.42614509    -0.17800
F1275       F  0.62301195  0.20745377  0.41654711    -0.20300
F1276       F  0.59298481  0.23472851  0.37545702    -0.21500
F1277       F  0.64226008  0.21661002  0.35992199    -0.18700
F1278       F  0.57118531  0.08099675  0.29197135    -0.18800
F1279       F  0.52315234  0.09183020  0.31724473    -0.22600
F1280       F  0.55805975  0.05969004  0.34672665    -0.24200
C1281       C  0.54794998  0.08071311  0.09424652    -0.11000
C1282       C  0.57625875  0.09957291  0.09798557     0.11600
C1283       C  0.60095349  0.09502755  0.07243446    -0.02800
C1284       C  0.59744086  0.06933244  0.04711320    -0.05600
C1285       C  0.56876075  0.04963270  0.04064019    -0.16300
C1286       C  0.54162290  0.06186193  0.06236615     0.02600
C1287       C  0.57772783  0.12585699  0.12620349     0.12500
C1288       C  0.62984119  0.11864846  0.06732331     0.63200
H1289       H  0.61682798  0.06871099  0.02869620     0.12600
C1290       C  0.50634700  0.06664035  0.05134343     0.55300
H1291       H  0.52822483  0.08601645  0.11265068     0.08400
C1292       C  0.56364618  0.15688739  0.12063069    -0.05400
C1293       C  0.56753637  0.18061752  0.14791735    -0.06200
C1294       C  0.58611429  0.17519595  0.17960498    -0.15800
C1295       C  0.60118549  0.14475948  0.18474003    -0.01400
C1296       C  0.59563337  0.12016065  0.15848231    -0.08900
C1297       C  0.54405815  0.16518523  0.08659750     0.65400
H1298       H  0.55609589  0.20399063  0.14466677     0.10800
C1299       C  0.62289385  0.13821560  0.21765949     0.63800
H1300       H  0.60560713  0.09629408  0.16262456     0.08200
F1301       F  0.49976932  0.09944219  0.04981166    -0.19300
F1302       F  0.48569047  0.05330313  0.07727826    -0.15500
F1303       F  0.49859969  0.05500596  0.01803488    -0.19000
F1304       F  0.63269708  0.14228153  0.09389958    -0.22400
F1305       F  0.62694566  0.13420612  0.03353728    -0.23900
F1306       F  0.65810057  0.10161551  0.06757801    -0.17800
F1307       F  0.63343582  0.10642181  0.21853323    -0.20300
F1308       F  0.60621036  0.14334413  0.24961721    -0.21500
F1309       F  0.64990390  0.15900503  0.21635336    -0.18700
F1310       F  0.53629894  0.19785942  0.08496711    -0.18800
F1311       F  0.51539299  0.14710652  0.08702159    -0.22600
F1312       F  0.56145998  0.15862668  0.05549173    -0.24200
C1313       C  0.91458449  0.48450237  0.39028043    -0.11000
C1314       C  0.94399237  0.99812473  0.37713186     0.11600
C1315       C  0.94939252  0.00347560  0.33899379    -0.02800
C1316       C  0.92272457  0.00128553  0.31457088    -0.05600
C1317       C  0.89158023  0.48655313  0.32862081    -0.16300
C1318       C  0.88717490  0.48238673  0.36698554     0.02600
C1319       C  0.97020619  0.99895523  0.40592536     0.12500
C1320       C  0.98217647  0.01183248  0.32214304     0.63200
H1321       H  0.92665613  0.00580914  0.28548459     0.12600
C1322       C  0.85447607  0.47616389  0.38511007     0.55300
H1323       H  0.91132987  0.48159661  0.41969854     0.08400
C1324       C  0.98122809  0.02797884  0.42248262    -0.05400
C1325       C  0.00353294  0.02613663  0.45233889    -0.06200
C1326       C  0.01863222  0.49343921  0.46691433    -0.15800
C1327       C  0.99912837  0.46437904  0.45542386    -0.01400
C1328       C  0.98281448  0.46436396  0.42109698    -0.08900
C1329       C  0.96744208  0.06055231  0.41030729     0.65400
H1330       H  0.00683475  0.04757726  0.46661643     0.10800
C1331       C  0.48107097  0.43744251  0.47954927     0.63800
H1332       H  0.97155712  0.44191408  0.41095272     0.08200
F1333       F  0.84823537  0.50170541  0.40822551    -0.19300
F1334       F  0.85545339  0.44756703  0.40573955    -0.15500
F1335       F  0.82903209  0.47309871  0.36037055    -0.19000
F1336       F  0.99016262  0.98754669  0.29811317    -0.22400
F1337       F  0.00680826  0.01511419  0.34772264    -0.23900
F1338       F  0.98035818  0.04103452  0.30275407    -0.17800
F1339       F  0.44852125  0.44388821  0.48388291    -0.20300
F1340       F  0.49401269  0.43447041  0.51370390    -0.21500
F1341       F  0.48236343  0.40740866  0.46278823    -0.18700
F1342       F  0.97668572  0.08560452  0.43334898    -0.18800
F1343       F  0.93388069  0.05868205  0.41019204    -0.22600
F1344       F  0.97802686  0.06863979  0.37539468    -0.24200
C1345       C  0.99140550  0.99910713  0.09913671    -0.11000
C1346       C  0.96125563  0.49309900  0.09096620     0.11600
C1347       C  0.95445839  0.49759373  0.05371852    -0.02800
C1348       C  0.98041975  0.49864895  0.02883100    -0.05600
C1349       C  0.01480209  0.49660476  0.03788214    -0.16300
C1350       C  0.01813756  0.99976216  0.07530562     0.02600
C1351       C  0.93590425  0.49384128  0.11935738     0.12500
C1352       C  0.91985900  0.50387525  0.04062441     0.63200
H1353       H  0.97209686  0.50376280  0.00178805     0.12600
C1354       C  0.54863943  0.99054994  0.09751776     0.55300
H1355       H  0.99531911  0.99772724  0.12867456     0.08400
C1356       C  0.91626167  0.46630185  0.12925712    -0.05400
C1357       C  0.89330570  0.46971048  0.15695785    -0.06200
C1358       C  0.88977701  0.49921552  0.17580497    -0.15800
C1359       C  0.90973173  0.03452664  0.16287870    -0.01400
C1360       C  0.93198132  0.03124726  0.13414235    -0.08900
C1361       C  0.91869893  0.43261158  0.11265220     0.65400
H1362       H  0.87795807  0.44862628  0.16394026     0.10800
C1363       C  0.91037317  0.06584135  0.18477453     0.63800
H1364       H  0.94866870  0.05125813  0.12721445     0.08200
F1365       F  0.54959249  0.96257166  0.11914831    -0.19300
F1366       F  0.55390076  0.01706524  0.11999325    -0.15500
F1367       F  0.57142150  0.98987782  0.07211039    -0.19000
F1368       F  0.90874112  0.53144138  0.05743543    -0.22400
F1369       F  0.89960401  0.47756111  0.04954346    -0.23900
F1370       F  0.91771933  0.50892913  0.00300515    -0.17800
F1371       F  0.91503373  0.05864580  0.22165828    -0.20300
F1372       F  0.88143759  0.08168489  0.17987079    -0.21500
F1373       F  0.93527666  0.08716664  0.17388588    -0.18700
F1374       F  0.88846859  0.42231993  0.09977543    -0.18800
F1375       F  0.92866944  0.41087896  0.13961059    -0.22600
F1376       F  0.94016936  0.43160050  0.08383600    -0.24200
C1377       C  0.68336632  0.48017128  0.44889850    -0.11000
C1378       C  0.67887430  0.99182030  0.41365835     0.11600
C1379       C  0.64859910  0.00499039  0.40638438    -0.02800
C1380       C  0.62468242  0.00380325  0.43423915    -0.05600
C1381       C  0.62761780  0.49284812  0.47195427    -0.16300
C1382       C  0.65968324  0.47755105  0.47672838     0.02600
C1383       C  0.70565537  0.99291693  0.38626959     0.12500
C1384       C  0.64216382  0.02071656  0.36896295     0.63200
H1385       H  0.60274266  0.01443018  0.42743392     0.12600
C1386       C  0.67358034  0.45920385  0.50990584     0.55300
H1387       H  0.70726442  0.47020825  0.45323072     0.08400
C1388       C  0.73030370  0.01786901  0.38526199    -0.05400
C1389       C  0.75197338  0.01912680  0.35574258    -0.06200
C1390       C  0.75084912  0.49467599  0.33085229    -0.15800
C1391       C  0.72449651  0.47143015  0.33121873    -0.01400
C1392       C  0.70183795  0.47233757  0.35989973    -0.08900
C1393       C  0.73520522  0.04396471  0.41400561     0.65400
H1394       H  0.77028560  0.03867537  0.35470373     0.10800
C1395       C  0.71948880  0.44628215  0.30123258     0.63800
H1396       H  0.68161869  0.45484402  0.36083965     0.08200
F1397       F  0.69682121  0.47820113  0.52752372    -0.19300
F1398       F  0.68954426  0.43191158  0.49851341    -0.15500
F1399       F  0.65044437  0.44654854  0.03596409    -0.19000
F1400       F  0.64170913  0.99705568  0.34223961    -0.22400
F1401       F  0.66619343  0.04378443  0.36050981    -0.23900
F1402       F  0.61298676  0.03623589  0.36776919    -0.17800
F1403       F  0.74378486  0.42371106  0.30321973    -0.20300
F1404       F  0.71987093  0.46161157  0.26711759    -0.21500
F1405       F  0.69003339  0.42939096  0.30458468    -0.18700
F1406       F  0.72894815  0.07415050  0.39839824    -0.18800
F1407       F  0.76710977  0.04418369  0.42619443    -0.22600
F1408       F  0.71568613  0.03908088  0.44418395    -0.24200
C1409       C  0.64891810  0.51882808  0.10455678    -0.11000
C1410       C  0.67755622  0.03374587  0.08994810     0.11600
C1411       C  0.68043353  0.03850574  0.05208657    -0.02800
C1412       C  0.65512568  0.02683563  0.02876787    -0.05600
C1413       C  0.62775600  0.50586841  0.04085774    -0.16300
C1414       C  0.63029863  0.49827440  0.08100381     0.02600
C1415       C  0.70624665  0.03232137  0.11536540     0.12500
C1416       C  0.70989634  0.05591976  0.03517965     0.63200
H1417       H  0.65972816  0.03303042  0.00068813     0.12600
C1418       C  0.62520936  0.46635952  0.10302244     0.55300
H1419       H  0.64742818  0.51518740  0.13413143     0.08400
C1420       C  0.71000356  0.05241049  0.14648395    -0.05400
C1421       C  0.73322901  0.04432896  0.17345195    -0.06200
C1422       C  0.75318997  0.51369745  0.17309410    -0.15800
C1423       C  0.74931506  0.49432419  0.14119521    -0.01400
C1424       C  0.72580969  0.50298613  0.11454182    -0.08900
C1425       C  0.69052945  0.08293554  0.15052262     0.65400
H1426       H  0.73582384  0.05920567  0.19769762     0.10800
C1427       C  0.77001484  0.46488907  0.13482167     0.63800
H1428       H  0.72158656  0.48758500  0.09102840     0.08200
F1429       F  0.60932509  0.47183707  0.13566135    -0.19300
F1430       F  0.65519240  0.45366020  0.11178664    -0.15500
F1431       F  0.60845382  0.44289694  0.08575046    -0.19000
F1432       F  0.72868066  0.03345887  0.01788248    -0.22400
F1433       F  0.72899231  0.07194450  0.06104132    -0.23900
F1434       F  0.69994807  0.07899325  0.00966107    -0.17800
F1435       F  0.76269738  0.44073221  0.16059505    -0.20300
F1436       F  0.80256385  0.47389533  0.13754615    -0.21500
F1437       F  0.76468251  0.45187309  0.10033099    -0.18700
F1438       F  0.69698182  0.09835927  0.18347353    -0.18800
F1439       F  0.65779308  0.07521465  0.14904731    -0.22600
F1440       F  0.69838151  0.10464931  0.12242113    -0.24200
C1441       C  0.60109679  0.49876128  0.50500654    -0.01600
O1442       O  0.85315165  0.02408184  0.79127340    -0.70900
O1443       O  0.78725378  0.03504591  0.71908593    -0.71100
O1444       O  0.78788476  0.02707654  0.79271259    -0.71000
O1445       O  0.85207625  0.03076681  0.71806351    -0.71000
O1446       O  0.84954743  0.47384408  0.71211280    -0.71000
O1447       O  0.78493888  0.47001758  0.78487187    -0.71000
O1448       O  0.78478925  0.47877556  0.71124517    -0.70900
O1449       O  0.85043262  0.46627097  0.78510332    -0.71100
V1450       V  0.81992613  0.02824341  0.75524159     1.35200
V1451       V  0.81744347  0.47323979  0.74853454     1.35200
C1452       C  0.86507647  0.49079720  0.79916341     0.78300
C1453       C  0.77611203  0.50728450  0.70219809     0.78400
C1454       C  0.77641932  0.49518277  0.80134196     0.78300
C1455       C  0.86299385  0.50046248  0.70191223     0.78200
C1456       C  0.54112218  0.49428629  0.00299382    -0.01600
C1457       C  0.57102375  0.02575794  0.50247071    -0.01600
O1458       O  0.61202163  0.27792951  0.71310725    -0.70900
O1459       O  0.61079295  0.21640838  0.79281466    -0.71100
O1460       O  0.61289126  0.21217759  0.71941156    -0.71000
O1461       O  0.61052033  0.28224391  0.78694733    -0.71000
O1462       O  0.55799596  0.27928379  0.78604891    -0.71000
O1463       O  0.56020838  0.21137796  0.71592100    -0.71000
O1464       O  0.55814650  0.21329887  0.78920530    -0.70900
O1465       O  0.55926238  0.27661959  0.71212837    -0.71100
V1466       V  0.61056221  0.24720191  0.75305680     1.35200
V1467       V  0.55994304  0.24524910  0.75098734     1.35200
C1468       C  0.58571513  0.28772121  0.69912937     0.78300
C1469       C  0.58416484  0.20372201  0.80378824     0.78400
C1470       C  0.58694314  0.20002137  0.70602283     0.78300
C1471       C  0.58392657  0.29270693  0.79837654     0.78200
C1472       C  0.57143436  0.46630952  0.00025098    -0.01600
C1473       C  0.60316477  0.35492066  0.87468427    -0.11000
C1474       C  0.57338628  0.37046372  0.87715449     0.11600
C1475       C  0.54825247  0.36211453  0.85164685    -0.02800
C1476       C  0.55312319  0.33676951  0.82685879    -0.05600
C1477       C  0.58245302  0.32021385  0.82508987    -0.16300
C1478       C  0.60853445  0.33038408  0.84870118     0.02600
C1479       C  0.57022219  0.39548940  0.90636797     0.12500
C1480       C  0.51619280  0.37929175  0.84785233     0.63200
H1481       H  0.53356492  0.33021442  0.80800738     0.12600
C1482       C  0.64193454  0.31580174  0.84699065     0.55300
H1483       H  0.62232889  0.36229495  0.89362148     0.08400
C1484       C  0.55083672  0.39002249  0.93749629    -0.05400
C1485       C  0.54945904  0.41497967  0.96363450    -0.06200
C1486       C  0.56612427  0.44629983  0.96100727    -0.15800
C1487       C  0.57875042  0.45261996  0.92423479    -0.01400
C1488       C  0.58735545  0.42536199  0.90300636    -0.08900
C1489       C  0.53525227  0.35645633  0.94571378     0.65400
H1490       H  0.53658177  0.40855161  0.98815832     0.10000
C1491       C  0.56377658  0.47664628  0.89659329     0.63800
H1492       H  0.60144067  0.42924132  0.87820423     0.08200
F1493       F  0.63948377  0.28248969  0.85274355    -0.19300
F1494       F  0.66289279  0.32847611  0.87344864    -0.15500
F1495       F  0.65552925  0.32246326  0.81301322    -0.19000
F1496       F  0.51241093  0.40347270  0.87320360    -0.22400
F1497       F  0.49077169  0.35672264  0.85183027    -0.23900
F1498       F  0.51417224  0.39326610  0.81313402    -0.17800
F1499       F  0.58461827  0.48317506  0.86778790    -0.20300
F1500       F  0.55554791  0.50601553  0.91040733    -0.21500
F1501       F  0.53637640  0.46242251  0.88143127    -0.18700
F1502       F  0.52310330  0.35412036  0.98101692    -0.18800
F1503       F  0.55794214  0.33246097  0.94227215    -0.22600
F1504       F  0.50992277  0.35013706  0.92166746    -0.24200
C1505       C  0.59880381  0.38485395  0.55178351    -0.11000
C1506       C  0.57653437  0.38200728  0.57987952     0.11600
C1507       C  0.55109035  0.40373328  0.58026788    -0.02800
C1508       C  0.55107550  0.42983059  0.55443772    -0.05600
C1509       C  0.57547672  0.43739957  0.52807831    -0.16300
C1510       C  0.59789419  0.40990474  0.52441972     0.02600
C1511       C  0.58068602  0.35644226  0.60893617     0.12500
C1512       C  0.52381853  0.39918661  0.60807317     0.63200
H1513       H  0.53071870  0.44362325  0.55507795     0.12600
C1514       C  0.61888346  0.40023057  0.49212726     0.55300
H1515       H  0.61688603  0.36616027  0.55087133     0.08400
C1516       C  0.57118636  0.32325063  0.60386054    -0.05400
C1517       C  0.57367531  0.30130933  0.63393567    -0.06200
C1518       C  0.58552634  0.31160593  0.66829369    -0.15800
C1519       C  0.59522941  0.34465743  0.67315691    -0.01400
C1520       C  0.59341628  0.36640683  0.64299555    -0.08900
C1521       C  0.55851245  0.31112339  0.56699399     0.65400
H1522       H  0.56629145  0.27587789  0.63093930     0.10800
C1523       C  0.60537037  0.35719716  0.71068196     0.63800
H1524       H  0.60066443  0.39186357  0.64612475     0.08200
F1525       F  0.60470434  0.37335172  0.47540308    -0.19300
F1526       F  0.64873778  0.39004961  0.50455836    -0.15500
F1527       F  0.62408097  0.42409753  0.46628918    -0.19000
F1528       F  0.53587295  0.40260955  0.64338386    -0.22400
F1529       F  0.50934494  0.36851431  0.60488985    -0.23900
F1530       F  0.50004124  0.42178738  0.60294022    -0.17800
F1531       F  0.63237629  0.34106483  0.72328496    -0.20300
F1532       F  0.58015544  0.35182615  0.73509255    -0.21500
F1533       F  0.61295121  0.39034545  0.70977642    -0.18700
F1534       F  0.54876834  0.27851215  0.56875832    -0.18800
F1535       F  0.58261982  0.31448517  0.54095351    -0.22600
F1536       F  0.53215994  0.32888436  0.55561508    -0.24200
C1537       C  0.55161657  0.08391747  0.92065486    -0.11000
C1538       C  0.58197408  0.09536557  0.90821007     0.11600
C1539       C  0.60939204  0.08775287  0.93042331    -0.02800
C1540       C  0.60446199  0.06678314  0.96135616    -0.05600
C1541       C  0.57343074  0.05345136  0.97180348    -0.16300
C1542       C  0.54964158  0.07587017  0.95811005     0.02600
C1543       C  0.58253704  0.12220071  0.87992523     0.12500
C1544       C  0.64355075  0.10109620  0.92299624     0.63200
H1545       H  0.62565530  0.05905268  0.97461193     0.12600
C1546       C  0.53990673  0.10659303  0.97867918     0.55300
H1547       H  0.53039132  0.09392202  0.90733519     0.08400
C1548       C  0.56806351  0.11948678  0.84442165    -0.05400
C1549       C  0.56778148  0.14733028  0.82139594    -0.06200
C1550       C  0.58323182  0.17686504  0.83133581    -0.15800
C1551       C  0.59675573  0.17998529  0.86687172    -0.01400
C1552       C  0.59491357  0.15296869  0.89101565    -0.08900
C1553       C  0.55254325  0.08853416  0.82880393     0.65400
H1554       H  0.55617194  0.14564314  0.79462705     0.10800
C1555       C  0.61245398  0.21183209  0.87943926     0.63800
H1556       H  0.60335216  0.15570353  0.91900454     0.08200
F1557       F  0.54895267  0.13514998  0.95990983    -0.19300
F1558       F  0.55464803  0.10926282  0.01219060    -0.15500
F1559       F  0.50669045  0.10708994  0.98215356    -0.19000
F1560       F  0.65011508  0.12756182  0.94526481    -0.22400
F1561       F  0.64768746  0.11045787  0.88665316    -0.23900
F1562       F  0.66602772  0.07770429  0.93106001    -0.17800
F1563       F  0.62100290  0.21077281  0.91628622    -0.20300
F1564       F  0.59111928  0.23698514  0.87414685    -0.21500
F1565       F  0.64033673  0.21813470  0.85943154    -0.18700
F1566       F  0.56631055  0.08228179  0.79518438    -0.18800
F1567       F  0.51968220  0.09307228  0.82362731    -0.22600
F1568       F  0.55631779  0.06129228  0.85082229    -0.24200
C1569       C  0.55094444  0.08277215  0.59077978    -0.11000
C1570       C  0.57972768  0.10084319  0.59432413     0.11600
C1571       C  0.60414668  0.09595983  0.56860065    -0.02800
C1572       C  0.59996782  0.07027728  0.54341932    -0.05600
C1573       C  0.57094869  0.05080115  0.53768925    -0.16300
C1574       C  0.54415246  0.06373248  0.55926570     0.02600
C1575       C  0.58166584  0.12688052  0.62252274     0.12500
C1576       C  0.63358667  0.11895996  0.56360917     0.63200
H1577       H  0.61927610  0.06921008  0.52491195     0.12600
C1578       C  0.50900104  0.06902889  0.54815329     0.55300
H1579       H  0.53137375  0.08873680  0.60912042     0.08400
C1580       C  0.56956113  0.15863608  0.61613728    -0.05400
C1581       C  0.57191197  0.18153359  0.64440240    -0.06200
C1582       C  0.58736579  0.17450415  0.67777796    -0.15800
C1583       C  0.60124211  0.14356136  0.68347867    -0.01400
C1584       C  0.59702319  0.11977318  0.65610336    -0.08900
C1585       C  0.55374927  0.16856105  0.58010750     0.65400
H1586       H  0.56170766  0.20545940  0.64063316     0.10800
C1587       C  0.62011335  0.13564876  0.71822308     0.63800
H1588       H  0.60585051  0.09540980  0.66054734     0.08200
F1589       F  0.50296856  0.10197231  0.54630507    -0.19300
F1590       F  0.48808059  0.05626165  0.57418301    -0.15500
F1591       F  0.50124869  0.05712883  0.51490881    -0.19000
F1592       F  0.63627645  0.14317495  0.58955170    -0.22400
F1593       F  0.63181684  0.13378626  0.52930539    -0.23900
F1594       F  0.66150557  0.10149382  0.56525817    -0.17800
F1595       F  0.63042789  0.10376019  0.71881409    -0.20300
F1596       F  0.60081849  0.13983514  0.74845507    -0.21500
F1597       F  0.64723916  0.15618747  0.72067786    -0.18700
F1598       F  0.54813002  0.20172543  0.57832959    -0.18800
F1599       F  0.52429468  0.15219130  0.57658032    -0.22600
F1600       F  0.57342078  0.16138107  0.55100324    -0.24200
C1601       C  0.91446387  0.48170417  0.88724220    -0.11000
C1602       C  0.94420182  0.99321288  0.87516617     0.11600
C1603       C  0.94881626  0.99385471  0.83658009    -0.02800
C1604       C  0.92131333  0.99440030  0.81321347    -0.05600
C1605       C  0.89259114  0.48738578  0.82535700    -0.16300
C1606       C  0.88761137  0.48041351  0.86298024     0.02600
C1607       C  0.97169585  0.99483851  0.90244849     0.12500
C1608       C  0.98231333  0.99178481  0.82003466     0.63200
H1609       H  0.92425206  0.99571242  0.78368382     0.12600
C1610       C  0.85380480  0.47249746  0.87730095     0.55300
H1611       H  0.91084348  0.47709757  0.91631369     0.08400
C1612       C  0.98360426  0.02441170  0.91704343    -0.05400
C1613       C  0.00710489  0.02364268  0.94577693    -0.06200
C1614       C  0.01762048  0.49286261  0.96702008    -0.15800
C1615       C  0.99720003  0.46397860  0.95681803    -0.01400
C1616       C  0.97971852  0.46358996  0.92312567    -0.08900
C1617       C  0.96907006  0.05661043  0.90472591     0.65400
H1618       H  0.01289099  0.04593195  0.95675663     0.10800
C1619       C  0.47994952  0.43621371  0.98029341     0.63800
H1620       H  0.96734661  0.44125441  0.91425492     0.08200
F1621       F  0.83398399  0.49861952  0.87044309    -0.19300
F1622       F  0.85395634  0.46611981  0.91472978    -0.15500
F1623       F  0.84102653  0.44521333  0.85979705    -0.19000
F1624       F  0.99469706  0.96179955  0.82904038    -0.22400
F1625       F  0.00292746  0.01613850  0.83326302    -0.23900
F1626       F  0.98145223  0.99461048  0.78210163    -0.17800
F1627       F  0.44762187  0.44424070  0.98300884    -0.20300
F1628       F  0.49177291  0.43382397  0.01499374    -0.21500
F1629       F  0.48055312  0.40544984  0.96508671    -0.18700
F1630       F  0.98228091  0.08294628  0.92342724    -0.18800
F1631       F  0.93603968  0.05567546  0.91121899    -0.22600
F1632       F  0.97417581  0.06202982  0.86769109    -0.24200
C1633       C  0.99281591  0.99670734  0.60446962    -0.11000
C1634       C  0.96157159  0.49188598  0.59042160     0.11600
C1635       C  0.95507435  0.49713039  0.55321712    -0.02800
C1636       C  0.98117274  0.49814290  0.52858913    -0.05600
C1637       C  0.01551904  0.49585567  0.53775362    -0.16300
C1638       C  0.01883213  0.99833673  0.57954078     0.02600
C1639       C  0.93606651  0.49312836  0.61860318     0.12500
C1640       C  0.92053591  0.50314803  0.53954476     0.63200
H1641       H  0.97280971  0.50285387  0.50155287     0.12600
C1642       C  0.54938292  0.99330808  0.59672133     0.55300
H1643       H  0.99762072  0.99491040  0.63381163     0.08400
C1644       C  0.91458272  0.46657046  0.62677846    -0.05400
C1645       C  0.89095019  0.47071443  0.65354427    -0.06200
C1646       C  0.88835083  0.50000354  0.67306991    -0.15800
C1647       C  0.90799769  0.03190210  0.66663389    -0.01400
C1648       C  0.93166804  0.02834239  0.63955783    -0.08900
C1649       C  0.91560601  0.43313788  0.60926809     0.65400
H1650       H  0.87434803  0.45030758  0.65933567     0.10800
C1651       C  0.90579155  0.06455296  0.68566210     0.63800
H1652       H  0.94747858  0.04885935  0.63197768     0.08200
F1653       F  0.55015140  0.96594097  0.61930208    -0.19300
F1654       F  0.55520461  0.02031875  0.61825993    -0.15500
F1655       F  0.57187651  0.99148355  0.57112995    -0.19000
F1656       F  0.90688239  0.52749762  0.55975142    -0.22400
F1657       F  0.90172040  0.47488563  0.54314999    -0.23900
F1658       F  0.91947490  0.51289490  0.50298564    -0.17800
F1659       F  0.90941133  0.06019489  0.72321589    -0.20300
F1660       F  0.87610552  0.07810947  0.67787905    -0.21500
F1661       F  0.92977717  0.08667940  0.67418070    -0.18700
F1662       F  0.88563634  0.42552068  0.59370123    -0.18800
F1663       F  0.92217977  0.41000569  0.63615307    -0.22600
F1664       F  0.93874200  0.43112444  0.58228226    -0.24200
C1665       C  0.68375195  0.47554958  0.94976508    -0.11000
C1666       C  0.67697742  0.99444008  0.91520825     0.11600
C1667       C  0.64682784  0.00804853  0.90866019    -0.02800
C1668       C  0.62308426  0.00592589  0.93654945    -0.05600
C1669       C  0.62833418  0.48986131  0.97276461    -0.16300
C1670       C  0.66010781  0.47406304  0.97781930     0.02600
C1671       C  0.70323429  0.99579904  0.88752102     0.12500
C1672       C  0.64048757  0.02547043  0.87215452     0.63200
H1673       H  0.60086998  0.01629963  0.93022625     0.12600
C1674       C  0.67366956  0.45630659  0.01157086     0.55300
H1675       H  0.70738870  0.46505905  0.95420657     0.08400
C1676       C  0.73007725  0.01829309  0.88894698    -0.05400
C1677       C  0.75232189  0.01898127  0.86000178    -0.06200
C1678       C  0.75124726  0.49289421  0.83055588    -0.15800
C1679       C  0.72523091  0.46918564  0.83067751    -0.01400
C1680       C  0.70309465  0.46871235  0.86003956    -0.08900
C1681       C  0.73687319  0.04207895  0.91980004     0.65400
H1682       H  0.77280330  0.03619555  0.86091778     0.10800
C1683       C  0.71974471  0.44526918  0.79948209     0.63800
H1684       H  0.68310899  0.45093954  0.86067615     0.08200
F1685       F  0.69658233  0.47578346  0.02909431    -0.19300
F1686       F  0.68984196  0.42880579  0.00118781    -0.15500
F1687       F  0.65066620  0.44916147  0.53453840    -0.19000
F1688       F  0.63997242  0.00331706  0.84387586    -0.22400
F1689       F  0.66463343  0.04881976  0.86519018    -0.23900
F1690       F  0.61130282  0.04088763  0.87186872    -0.17800
F1691       F  0.74417270  0.42282013  0.79949506    -0.20300
F1692       F  0.71930082  0.46200847  0.76619988    -0.21500
F1693       F  0.69046088  0.42804750  0.80274566    -0.18700
F1694       F  0.76681922  0.03572929  0.93538570    -0.18800
F1695       F  0.71406680  0.04018209  0.94717537    -0.22600
F1696       F  0.73765104  0.07363766  0.90570529    -0.24200
C1697       C  0.64757392  0.52256768  0.60339591    -0.11000
C1698       C  0.67748488  0.03495100  0.58863457     0.11600
C1699       C  0.68175647  0.03804194  0.55066931    -0.02800
C1700       C  0.65674522  0.02636444  0.52689057    -0.05600
C1701       C  0.62754782  0.50828590  0.53995201    -0.16300
C1702       C  0.62960933  0.50129256  0.58012258     0.02600
C1703       C  0.70528982  0.03241338  0.61521892     0.12500
C1704       C  0.71192079  0.05437099  0.53405385     0.63200
H1705       H  0.66187381  0.03199492  0.49873578     0.12600
C1706       C  0.62575016  0.46918973  0.60205977     0.55300
H1707       H  0.64535719  0.51966734  0.63298826     0.08400
C1708       C  0.71079209  0.05425520  0.64453499    -0.05400
C1709       C  0.73310311  0.04589940  0.67249948    -0.06200
C1710       C  0.75136369  0.51381511  0.67269387    -0.15800
C1711       C  0.74511025  0.49299056  0.64235017    -0.01400
C1712       C  0.72233690  0.50252281  0.61533211    -0.08900
C1713       C  0.69455075  0.08696904  0.64534996     0.65400
H1714       H  0.73725312  0.06239329  0.69513449     0.10800
C1715       C  0.76207856  0.46082587  0.63814095     0.63800
H1716       H  0.71664162  0.48650335  0.59269725     0.08200
F1717       F  0.60970056  0.47406107  0.63471960    -0.19300
F1718       F  0.65620376  0.45768124  0.61084003    -0.15500
F1719       F  0.60986299  0.44506376  0.58470451    -0.19000
F1720       F  0.72919960  0.03159367  0.51533401    -0.22400
F1721       F  0.73223344  0.06837122  0.56020702    -0.23900
F1722       F  0.70288101  0.07880530  0.50972754    -0.17800
F1723       F  0.75331891  0.43969010  0.66655400    -0.20300
F1724       F  0.79537875  0.46620782  0.63848749    -0.21500
F1725       F  0.75376267  0.44568944  0.60547513    -0.18700
F1726       F  0.70104495  0.10336845  0.67769009    -0.18800
F1727       F  0.66134903  0.08274797  0.64206312    -0.22600
F1728       F  0.70597117  0.10629692  0.61658947    -0.24200
C1729       C  0.60070295  0.99647922  0.00488733    -0.01600
O1730       O  0.85568532  0.51839220  0.29277527    -0.70900
O1731       O  0.79087180  0.53102209  0.21967410    -0.71100
O1732       O  0.79049245  0.52281839  0.29320885    -0.71000
O1733       O  0.85563061  0.52553812  0.21956110    -0.71000
O1734       O  0.85173630  0.98031511  0.21163600    -0.71000
O1735       O  0.78558473  0.97411186  0.28215705    -0.71000
O1736       O  0.78710896  0.98331141  0.20872126    -0.70900
O1737       O  0.85095352  0.97233654  0.28468392    -0.71100
V1738       V  0.82300185  0.52342046  0.25625770     1.35200
V1739       V  0.81885666  0.97853213  0.24700389     1.35200
C1740       C  0.86445703  0.99719923  0.29933646     0.78300
C1741       C  0.77759251  0.01156421  0.19993676     0.78400
C1742       C  0.77637905  0.99873917  0.29905449     0.78300
C1743       C  0.86382642  0.00741283  0.20100248     0.78200
C1744       C  0.54119582  0.99471140  0.50224167    -0.01600
C1745       C  0.57076384  0.52546647  0.00424415    -0.01600
O1746       O  0.61371175  0.77831394  0.21327117    -0.70900
O1747       O  0.61185462  0.71808366  0.29367933    -0.71100
O1748       O  0.61272826  0.71266322  0.22027577    -0.71000
O1749       O  0.61291761  0.78382142  0.28675735    -0.71000
O1750       O  0.56036637  0.78125925  0.28700058    -0.71000
O1751       O  0.56011212  0.71369964  0.21706649    -0.71000
O1752       O  0.55915371  0.71554785  0.29031057    -0.70900
O1753       O  0.56095470  0.77882585  0.21356091    -0.71100
V1754       V  0.61184387  0.74821617  0.25351536     1.35200
V1755       V  0.56119981  0.74740348  0.25214107     1.35200
C1756       C  0.58752822  0.78888333  0.19997006     0.78300
C1757       C  0.58513996  0.70586998  0.30484438     0.78400
C1758       C  0.58630602  0.70138367  0.20699927     0.78300
C1759       C  0.58654943  0.79473856  0.29832399     0.78200
C1760       C  0.57151734  0.96669956  0.49909672    -0.01600
C1761       C  0.60550193  0.85824902  0.37283104    -0.11000
C1762       C  0.57501367  0.87235003  0.37604130     0.11600
C1763       C  0.54996244  0.86358054  0.35072756    -0.02800
C1764       C  0.55543766  0.83858619  0.32588820    -0.05600
C1765       C  0.58519757  0.82280314  0.32400702    -0.16300
C1766       C  0.61144567  0.83414338  0.34658299     0.02600
C1767       C  0.57109079  0.89682110  0.40536429     0.12500
C1768       C  0.51736795  0.87987815  0.34717950     0.63200
H1769       H  0.53587403  0.83151700  0.30727024     0.12600
C1770       C  0.64553495  0.82145582  0.34322608     0.55300
H1771       H  0.62468964  0.86633571  0.39138707     0.08400
C1772       C  0.55152515  0.89069852  0.43624821    -0.05400
C1773       C  0.54967901  0.91537215  0.46261634    -0.06200
C1774       C  0.56575008  0.94691866  0.45998470    -0.15800
C1775       C  0.57784666  0.95380051  0.42316619    -0.01400
C1776       C  0.58754012  0.92699550  0.40216246    -0.08900
C1777       C  0.53652743  0.85679797  0.44410662     0.65400
H1778       H  0.53740436  0.90842309  0.48738551     0.10000
C1779       C  0.56116443  0.97671305  0.39561122     0.63800
H1780       H  0.60184759  0.93131739  0.37759798     0.08200
F1781       F  0.64533352  0.78824123  0.35027960    -0.19300
F1782       F  0.66700373  0.83624579  0.36775467    -0.15500
F1783       F  0.65700911  0.82785346  0.30818362    -0.19000
F1784       F  0.51249109  0.90316679  0.37327566    -0.22400
F1785       F  0.49259300  0.85646086  0.35011163    -0.23900
F1786       F  0.51522696  0.89476632  0.31294426    -0.17800
F1787       F  0.58027031  0.98266156  0.36510089    -0.20300
F1788       F  0.55371553  0.00652168  0.40892863    -0.21500
F1789       F  0.53313496  0.96163532  0.38301509    -0.18700
F1790       F  0.52529423  0.85368605  0.47974994    -0.18800
F1791       F  0.55933772  0.83311340  0.43935447    -0.22600
F1792       F  0.51067143  0.85064576  0.42072924    -0.24200
C1793       C  0.59863227  0.88260392  0.05135206    -0.11000
C1794       C  0.57592538  0.87949385  0.07883434     0.11600
C1795       C  0.55003087  0.90065596  0.07863261    -0.02800
C1796       C  0.55040559  0.92707152  0.05332400    -0.05600
C1797       C  0.57514595  0.93486360  0.02748937    -0.16300
C1798       C  0.59773035  0.90748306  0.02395565     0.02600
C1799       C  0.58080661  0.85490570  0.10847610     0.12500
C1800       C  0.52178344  0.89500768  0.10495624     0.63200
H1801       H  0.53014327  0.94097548  0.05400143     0.12600
C1802       C  0.61908443  0.89771169  0.99205269     0.55300
H1803       H  0.61713769  0.86430627  0.05105658     0.08400
C1804       C  0.57286922  0.82129321  0.10415398    -0.05400
C1805       C  0.57583248  0.80033020  0.13485094    -0.06200
C1806       C  0.58749733  0.81186826  0.16868218    -0.15800
C1807       C  0.59705325  0.84505032  0.17244979    -0.01400
C1808       C  0.59374964  0.86610773  0.14194792    -0.08900
C1809       C  0.56179366  0.80755135  0.06741337     0.65400
H1810       H  0.56914115  0.77463865  0.13273498     0.10800
C1811       C  0.60924634  0.85826183  0.20894171     0.63800
H1812       H  0.60032026  0.89181468  0.14422035     0.08200
F1813       F  0.60521110  0.87067669  0.97540143    -0.19300
F1814       F  0.64888439  0.88768694  0.00488092    -0.15500
F1815       F  0.62439503  0.92145495  0.96618449    -0.19000
F1816       F  0.53251236  0.89670731  0.14095227    -0.22400
F1817       F  0.50747635  0.86456339  0.09926902    -0.23900
F1818       F  0.49817720  0.91789366  0.10007079    -0.17800
F1819       F  0.63675646  0.84211493  0.21998607    -0.20300
F1820       F  0.58544355  0.85359143  0.23521176    -0.21500
F1821       F  0.61707207  0.89133248  0.20671171    -0.18700
F1822       F  0.55328646  0.77465695  0.07019126    -0.18800
F1823       F  0.58663627  0.81100815  0.04228197    -0.22600
F1824       F  0.53513329  0.82387061  0.05424738    -0.24200
C1825       C  0.55256591  0.58647962  0.42059567    -0.11000
C1826       C  0.58302818  0.59740816  0.40809215     0.11600
C1827       C  0.61040029  0.58938634  0.43006333    -0.02800
C1828       C  0.60531407  0.56836166  0.46085852    -0.05600
C1829       C  0.57411370  0.55564659  0.47151599    -0.16300
C1830       C  0.55058135  0.57848263  0.45800927     0.02600
C1831       C  0.58375575  0.62435063  0.38016686     0.12500
C1832       C  0.64461248  0.60251634  0.42267572     0.63200
H1833       H  0.62647686  0.56016281  0.47394518     0.12600
C1834       C  0.54064648  0.60917910  0.47860370     0.55300
H1835       H  0.53150630  0.59686311  0.40731721     0.08400
C1836       C  0.56973491  0.62158281  0.34448433    -0.05400
C1837       C  0.56960305  0.64941944  0.32158293    -0.06200
C1838       C  0.58415685  0.67914616  0.33222237    -0.15800
C1839       C  0.59717839  0.68241685  0.36795131    -0.01400
C1840       C  0.59573900  0.65514960  0.39173818    -0.08900
C1841       C  0.55466079  0.59057134  0.32845365     0.65400
H1842       H  0.55876717  0.64763434  0.29440181     0.10800
C1843       C  0.61189080  0.71463112  0.38102237     0.63800
H1844       H  0.60411813  0.65769409  0.41979348     0.08200
F1845       F  0.54946633  0.63774438  0.45972471    -0.19300
F1846       F  0.55531878  0.61214099  0.51210468    -0.15500
F1847       F  0.50743330  0.60949894  0.48213530    -0.19000
F1848       F  0.65158574  0.62841524  0.44563714    -0.22400
F1849       F  0.64868461  0.61261622  0.38656126    -0.23900
F1850       F  0.66679355  0.57868554  0.42990472    -0.17800
F1851       F  0.62021815  0.71341849  0.41793016    -0.20300
F1852       F  0.58989776  0.73922124  0.37586094    -0.21500
F1853       F  0.63971127  0.72211118  0.36134229    -0.18700
F1854       F  0.56982531  0.58397494  0.29573265    -0.18800
F1855       F  0.52208454  0.59532257  0.32139464    -0.22600
F1856       F  0.55718573  0.56343983  0.35095216    -0.24200
C1857       C  0.54840212  0.58097672  0.09326249    -0.11000
C1858       C  0.57626717  0.60036535  0.09679367     0.11600
C1859       C  0.60112411  0.59622159  0.07141339    -0.02800
C1860       C  0.59832812  0.57014889  0.04636241    -0.05600
C1861       C  0.56973960  0.55024454  0.03980056    -0.16300
C1862       C  0.54243010  0.56244412  0.06118041     0.02600
C1863       C  0.57769780  0.62657768  0.12511589     0.12500
C1864       C  0.62898881  0.62128653  0.06838513     0.63200
H1865       H  0.61784623  0.56902721  0.02829248     0.12600
C1866       C  0.50767669  0.56834100  0.04918876     0.55300
H1867       H  0.52860201  0.58586369  0.11171739     0.08400
C1868       C  0.56142924  0.65661972  0.12102172    -0.05400
C1869       C  0.56552197  0.68029756  0.14833395    -0.06200
C1870       C  0.58537556  0.67537098  0.17916453    -0.15800
C1871       C  0.60151851  0.64548681  0.18351212    -0.01400
C1872       C  0.59663543  0.62126171  0.15672999    -0.08900
C1873       C  0.53828091  0.66352213  0.08947171     0.65400
H1874       H  0.55282737  0.70305502  0.14602998     0.10800
C1875       C  0.62328431  0.63898443  0.21644067     0.63800
H1876       H  0.60772516  0.59785375  0.16005561     0.08200
F1877       F  0.50228254  0.60143856  0.04725861    -0.19300
F1878       F  0.48614944  0.55580759  0.07469970    -0.15500
F1879       F  0.50036057  0.55658423  0.01579722    -0.19000
F1880       F  0.64543178  0.62358029  0.10133823    -0.22400
F1881       F  0.61688206  0.65154325  0.05950532    -0.23900
F1882       F  0.65094249  0.61357946  0.04157828    -0.17800
F1883       F  0.63439989  0.60741820  0.21689295    -0.20300
F1884       F  0.60636416  0.64339352  0.24847616    -0.21500
F1885       F  0.64995169  0.66024398  0.21553547    -0.18700
F1886       F  0.53015494  0.69610079  0.08764459    -0.18800
F1887       F  0.51003254  0.64519976  0.09456249    -0.22600
F1888       F  0.55202923  0.65603355  0.05638178    -0.24200
C1889       C  0.91213985  0.99101321  0.38914638    -0.11000
C1890       C  0.94605782  0.49096778  0.37678612     0.11600
C1891       C  0.95056947  0.49412189  0.33831101    -0.02800
C1892       C  0.92315384  0.49151936  0.31494329    -0.05600
C1893       C  0.89098744  0.99441182  0.32672566    -0.16300
C1894       C  0.88545420  0.98933816  0.36476724     0.02600
C1895       C  0.97313784  0.49312096  0.40437358     0.12500
C1896       C  0.98367965  0.49857094  0.32065697     0.63200
H1897       H  0.92626621  0.49418787  0.28549489     0.12600
C1898       C  0.85211790  0.98347778  0.38152362     0.55300
H1899       H  0.90798694  0.98725975  0.41830838     0.08400
C1900       C  0.98271208  0.52261989  0.42088702    -0.05400
C1901       C  0.00548364  0.52202874  0.45034270    -0.06200
C1902       C  0.01551312  0.99689023  0.46858555    -0.15800
C1903       C  0.99432623  0.96889715  0.45757829    -0.01400
C1904       C  0.97731739  0.96977155  0.42366885    -0.08900
C1905       C  0.96669339  0.55421192  0.40916221     0.65400
H1906       H  0.00819136  0.54377253  0.46411733     0.10800
C1907       C  0.48060664  0.93577733  0.48195176     0.63800
H1908       H  0.96460236  0.94793318  0.41392349     0.08200
F1909       F  0.84477333  0.00996327  0.40276191    -0.19300
F1910       F  0.85244934  0.95580734  0.40374555    -0.15500
F1911       F  0.82769063  0.97907823  0.35576188    -0.19000
F1912       F  0.99431741  0.46842492  0.31014131    -0.22400
F1913       F  0.00647476  0.51266743  0.34393468    -0.23900
F1914       F  0.98166129  0.51863600  0.28985036    -0.17800
F1915       F  0.44818017  0.94269149  0.48651924    -0.20300
F1916       F  0.49393616  0.93382162  0.51595716    -0.21500
F1917       F  0.48149956  0.90512918  0.46650270    -0.18700
F1918       F  0.97730903  0.58047967  0.42967738    -0.18800
F1919       F  0.93344257  0.55106106  0.41354011    -0.22600
F1920       F  0.97331164  0.56126834  0.37273412    -0.24200
C1921       C  0.99324128  0.49287008  0.10251684    -0.11000
C1922       C  0.95975463  0.00061465  0.08665061     0.11600
C1923       C  0.95389366  0.00448637  0.04911595    -0.02800
C1924       C  0.98042146  0.00420216  0.02506869    -0.05600
C1925       C  0.01442707  0.00052100  0.03512246    -0.16300
C1926       C  0.01942510  0.49558789  0.07794874     0.02600
C1927       C  0.93387987  0.00220611  0.11429822     0.12500
C1928       C  0.91977990  0.01128444  0.03468048     0.63200
H1929       H  0.97282365  0.00920817  0.99777640     0.12600
C1930       C  0.54846661  0.49169502  0.09745545     0.55300
H1931       H  0.99785388  0.49125634  0.13191629     0.08400
C1932       C  0.91314314  0.97523467  0.12319990    -0.05400
C1933       C  0.89025262  0.97888180  0.15081060    -0.06200
C1934       C  0.88814064  0.00780448  0.17105876    -0.15800
C1935       C  0.91084622  0.52629297  0.16708801    -0.01400
C1936       C  0.93320514  0.52306907  0.13853830    -0.08900
C1937       C  0.91438405  0.94172883  0.10584914     0.65400
H1938       H  0.87407017  0.95821561  0.15695499     0.10800
C1939       C  0.91086991  0.55811700  0.18807681     0.63800
H1940       H  0.94920492  0.54344973  0.13101105     0.08200
F1941       F  0.54903913  0.46383107  0.11924580    -0.19300
F1942       F  0.55365655  0.51822531  0.11991148    -0.15500
F1943       F  0.57145953  0.49082076  0.07235467    -0.19000
F1944       F  0.90821646  0.03865396  0.05147226    -0.22400
F1945       F  0.89907012  0.98500438  0.04217486    -0.23900
F1946       F  0.91893064  0.01691987  0.99709458    -0.17800
F1947       F  0.91551844  0.55181859  0.22516115    -0.20300
F1948       F  0.88173799  0.57344707  0.18250175    -0.21500
F1949       F  0.93550696  0.57959829  0.17679053    -0.18700
F1950       F  0.88423405  0.93351105  0.09111250    -0.18800
F1951       F  0.92188373  0.91888252  0.13271855    -0.22600
F1952       F  0.93698181  0.93991181  0.07826692    -0.24200
C1953       C  0.68398330  0.97668860  0.44716212    -0.11000
C1954       C  0.67799544  0.49539301  0.41551049     0.11600
C1955       C  0.64784465  0.50895577  0.40867495    -0.02800
C1956       C  0.62397650  0.50723309  0.43652912    -0.05600
C1957       C  0.62815873  0.98985050  0.46996628    -0.16300
C1958       C  0.66014184  0.97432088  0.47488955     0.02600
C1959       C  0.70426480  0.49569663  0.38763171     0.12500
C1960       C  0.64162070  0.52592546  0.37189155     0.63200
H1961       H  0.60200176  0.51786285  0.43006162     0.12600
C1962       C  0.67388217  0.95619460  0.50829795     0.55300
H1963       H  0.70786974  0.96678913  0.45178453     0.08400
C1964       C  0.73097636  0.51839878  0.38769851    -0.05400
C1965       C  0.75345799  0.51765081  0.35900234    -0.06200
C1966       C  0.75142358  0.99537536  0.32838586    -0.15800
C1967       C  0.72792989  0.96913941  0.33056518    -0.01400
C1968       C  0.70530591  0.96871592  0.35943301    -0.08900
C1969       C  0.73732528  0.54406380  0.41670814     0.65400
H1970       H  0.77375094  0.53512549  0.35897145     0.10800
C1971       C  0.72594146  0.94194274  0.30253016     0.63800
H1972       H  0.68672242  0.94951580  0.36122165     0.08200
F1973       F  0.69719061  0.97516091  0.52586875    -0.19300
F1974       F  0.68966407  0.92867081  0.49725300    -0.15500
F1975       F  0.65035582  0.94671800  0.03368888    -0.19000
F1976       F  0.64091255  0.50326455  0.34410520    -0.22400
F1977       F  0.66595710  0.54895798  0.36447035    -0.23900
F1978       F  0.61260755  0.54174112  0.37135997    -0.17800
F1979       F  0.75342199  0.92338901  0.30501684    -0.20300
F1980       F  0.72320210  0.95514229  0.26748803    -0.21500
F1981       F  0.69933957  0.92109748  0.30822527    -0.18700
F1982       F  0.76789745  0.53997088  0.43179541    -0.18800
F1983       F  0.71527198  0.54256728  0.44490618    -0.22600
F1984       F  0.73634602  0.57476792  0.40045312    -0.24200
C1985       C  0.64921254  0.01897136  0.10261344    -0.11000
C1986       C  0.67761486  0.53323291  0.09254096     0.11600
C1987       C  0.68058375  0.53861267  0.05470010    -0.02800
C1988       C  0.65570151  0.52665702  0.03071721    -0.05600
C1989       C  0.62739407  0.00595269  0.03949337    -0.16300
C1990       C  0.63043071  0.99827266  0.07946219     0.02600
C1991       C  0.70627811  0.53033842  0.11827793     0.12500
C1992       C  0.71006050  0.55640704  0.03846912     0.63200
H1993       H  0.66080569  0.53245951  0.00263206     0.12600
C1994       C  0.62581859  0.96623993  0.10140517     0.55300
H1995       H  0.64809165  0.01538660  0.13222128     0.08400
C1996       C  0.71105139  0.55025168  0.14946350    -0.05400
C1997       C  0.73436395  0.54162078  0.17619137    -0.06200
C1998       C  0.75336670  0.01736843  0.17001930    -0.15800
C1999       C  0.75117250  0.99864047  0.13751430    -0.01400
C2000       C  0.72723104  0.00621754  0.11109792    -0.08900
C2001       C  0.69223129  0.58100544  0.15399513     0.65400
H2002       H  0.73786475  0.55667621  0.20018073     0.10800
C2003       C  0.77426029  0.97129979  0.13005603     0.63800
H2004       H  0.72395690  0.99100896  0.08724514     0.08200
F2005       F  0.61003913  0.97155090  0.13413804    -0.19300
F2006       F  0.65601685  0.95396727  0.11001791    -0.15500
F2007       F  0.60929068  0.94247259  0.08417561    -0.19000
F2008       F  0.72945483  0.53426114  0.02154670    -0.22400
F2009       F  0.72837936  0.57263333  0.06486680    -0.23900
F2010       F  0.70030134  0.57931817  0.01268670    -0.17800
F2011       F  0.76873725  0.94574585  0.15462578    -0.20300
F2012       F  0.80602901  0.98280983  0.13349475    -0.21500
F2013       F  0.77025163  0.95923853  0.09491601    -0.18700
F2014       F  0.70016374  0.59689505  0.18630073    -0.18800
F2015       F  0.65944652  0.57343050  0.15442059    -0.22600
F2016       F  0.69922863  0.60206900  0.12503182    -0.24200
C2017       C  0.60175867  0.99652911  0.50316774    -0.01600
O2018       O  0.85600808  0.51894360  0.78996897    -0.70900
O2019       O  0.78918931  0.53099161  0.71919098    -0.71100
O2020       O  0.79046870  0.52220409  0.79278343    -0.71000
O2021       O  0.85404580  0.52637882  0.71689830    -0.71000
O2022       O  0.84807878  0.97818676  0.71372409    -0.71000
O2023       O  0.78288884  0.97470350  0.78547945    -0.71000
O2024       O  0.78334346  0.98269239  0.71191418    -0.70900
O2025       O  0.84813253  0.97132378  0.78672180    -0.71100
V2026       V  0.82224187  0.52362770  0.75468756     1.35200
V2027       V  0.81559280  0.97774281  0.74963792     1.35200
C2028       C  0.86223748  0.99605763  0.80093081     0.78300
C2029       C  0.77465082  0.01102164  0.70222250     0.78400
C2030       C  0.77415355  0.00001195  0.80144743     0.78300
C2031       C  0.86147411  0.00483086  0.70357717     0.78200
C2032       C  0.54044820  0.99384273  0.00324412    -0.01600
C2033       C  0.57010275  0.52776217  0.50435285    -0.01600
O2034       O  0.61653764  0.77948415  0.71530030    -0.70900
O2035       O  0.61476595  0.71622519  0.79351524    -0.71100
O2036       O  0.61576626  0.71347876  0.71994696    -0.71000
O2037       O  0.61591478  0.78238624  0.78930206    -0.71000
O2038       O  0.56331522  0.78053025  0.78882410    -0.71000
O2039       O  0.56306542  0.71391267  0.71766060    -0.71000
O2040       O  0.56205250  0.71445611  0.79083661    -0.70900
O2041       O  0.56378713  0.77907654  0.71507220    -0.71100
V2042       V  0.61478400  0.74792155  0.75455694     1.35200
V2043       V  0.56413571  0.74709579  0.75328264     1.35200
C2044       C  0.59026603  0.78980606  0.70174868     0.78300
C2045       C  0.58801013  0.70382710  0.80455372     0.78400
C2046       C  0.58929014  0.70210205  0.70697426     0.78300
C2047       C  0.58957048  0.79340871  0.80081380     0.78200
C2048       C  0.57103825  0.96623618  0.99967494    -0.01600
C2049       C  0.60782382  0.85483385  0.87771486    -0.11000
C2050       C  0.57947134  0.87289396  0.87630396     0.11600
C2051       C  0.55661481  0.86726211  0.84774934    -0.02800
C2052       C  0.56072946  0.84056979  0.82464978    -0.05600
C2053       C  0.58848210  0.82140039  0.82662017    -0.16300
C2054       C  0.61349447  0.82997257  0.85229882     0.02600
C2055       C  0.57423798  0.89733063  0.90531088     0.12500
C2056       C  0.53017864  0.89130298  0.83888858     0.63200
H2057       H  0.54280283  0.83544035  0.80344124     0.12600
C2058       C  0.64603364  0.81358679  0.85305023     0.55300
H2059       H  0.62560320  0.86065394  0.89888066     0.08400
C2060       C  0.55337554  0.89075751  0.93501625    -0.05400
C2061       C  0.55035132  0.91509654  0.96165691    -0.06200
C2062       C  0.56608944  0.94689132  0.96002454    -0.15800
C2063       C  0.57893039  0.95427886  0.92363339    -0.01400
C2064       C  0.58995731  0.92789980  0.90277058    -0.08900
C2065       C  0.53800902  0.85670491  0.94132159     0.65400
H2066       H  0.53753243  0.90765887  0.98591756     0.10000
C2067       C  0.56209937  0.97675355  0.89573965     0.63800
H2068       H  0.60480928  0.93272981  0.87872817     0.08200
F2069       F  0.64150447  0.78041265  0.85807276    -0.19300
F2070       F  0.66591616  0.82491562  0.88124525    -0.15500
F2071       F  0.66194952  0.81976960  0.82029015    -0.19000
F2072       F  0.51198369  0.89785819  0.86941878    -0.22400
F2073       F  0.50906548  0.87977153  0.81195549    -0.23900
F2074       F  0.54477237  0.91998454  0.82607788    -0.17800
F2075       F  0.58195367  0.98390079  0.86616468    -0.20300
F2076       F  0.55285131  0.00597483  0.90913048    -0.21500
F2077       F  0.53511228  0.96067921  0.88182919    -0.18700
F2078       F  0.52335874  0.85363293  0.97532327    -0.18800
F2079       F  0.56142238  0.83324824  0.93973170    -0.22600
F2080       F  0.51470220  0.85001466  0.91483827    -0.24200
C2081       C  0.59874451  0.88326279  0.55174064    -0.11000
C2082       C  0.57661735  0.88089688  0.58000340     0.11600
C2083       C  0.55127024  0.90277314  0.58016338    -0.02800
C2084       C  0.55160746  0.92883820  0.55432988    -0.05600
C2085       C  0.57576969  0.93573213  0.52756968    -0.16300
C2086       C  0.59778661  0.90790917  0.52397406     0.02600
C2087       C  0.58151918  0.85628501  0.60991883     0.12500
C2088       C  0.52368181  0.89839176  0.60757110     0.63200
H2089       H  0.53185342  0.94341048  0.55545632     0.12600
C2090       C  0.61852233  0.89767108  0.49169916     0.55300
H2091       H  0.61685723  0.86458894  0.55113305     0.08400
C2092       C  0.57298258  0.82271693  0.60613428    -0.05400
C2093       C  0.57671109  0.80171367  0.63681192    -0.06200
C2094       C  0.58982997  0.81297463  0.67019011    -0.15800
C2095       C  0.59989500  0.84613678  0.67331026    -0.01400
C2096       C  0.59557468  0.86729418  0.64293786    -0.08900
C2097       C  0.56027382  0.80906376  0.56997753     0.65400
H2098       H  0.56947372  0.77613982  0.63500781     0.10800
C2099       C  0.61425821  0.85920562  0.70885439     0.63800
H2100       H  0.60268552  0.89289609  0.64483481     0.08200
F2101       F  0.60410494  0.87068303  0.47548826    -0.19300
F2102       F  0.64836696  0.88740501  0.50404889    -0.15500
F2103       F  0.62374102  0.92119219  0.46549762    -0.19000
F2104       F  0.53545673  0.90133079  0.64305077    -0.22400
F2105       F  0.50894903  0.86789644  0.60381023    -0.23900
F2106       F  0.50011970  0.92131376  0.60236384    -0.17800
F2107       F  0.62095726  0.89250551  0.70663497    -0.20300
F2108       F  0.64291365  0.84373694  0.71680793    -0.21500
F2109       F  0.59264131  0.85348533  0.73723374    -0.18700
F2110       F  0.55203063  0.77613057  0.57302374    -0.18800
F2111       F  0.58384213  0.81270871  0.54334983    -0.22600
F2112       F  0.53298282  0.82531650  0.55857107    -0.24200
C2113       C  0.55431139  0.58249262  0.91867405    -0.11000
C2114       C  0.58491227  0.59378395  0.90686978     0.11600
C2115       C  0.61189954  0.58627407  0.92981427    -0.02800
C2116       C  0.60636323  0.56571451  0.96092958    -0.05600
C2117       C  0.57509197  0.55283330  0.97096735    -0.16300
C2118       C  0.55156671  0.57504021  0.95620398     0.02600
C2119       C  0.58591144  0.62086719  0.87891487     0.12500
C2120       C  0.64622376  0.59935083  0.92300946     0.63200
H2121       H  0.62729489  0.55784407  0.97469696     0.12600
C2122       C  0.54146452  0.60612279  0.97587250     0.55300
H2123       H  0.53339213  0.59241620  0.90465218     0.08400
C2124       C  0.57238731  0.61844631  0.84291822    -0.05400
C2125       C  0.57222158  0.64665463  0.82037407    -0.06200
C2126       C  0.58686008  0.67631037  0.83137153    -0.15800
C2127       C  0.59940291  0.67901626  0.86737790    -0.01400
C2128       C  0.59759891  0.65158976  0.89088970    -0.08900
C2129       C  0.55810771  0.58738899  0.82614074     0.65400
H2130       H  0.56116508  0.64523319  0.79330753     0.10800
C2131       C  0.61423042  0.71083589  0.88101103     0.63800
H2132       H  0.60548456  0.65398714  0.91912356     0.08200
F2133       F  0.55052434  0.63438541  0.95658680    -0.19300
F2134       F  0.55596894  0.60940906  0.00947704    -0.15500
F2135       F  0.50819024  0.60665594  0.97883337    -0.19000
F2136       F  0.65259442  0.62588362  0.94524233    -0.22400
F2137       F  0.65094377  0.60852892  0.88670439    -0.23900
F2138       F  0.66839742  0.57580434  0.93170403    -0.17800
F2139       F  0.62137269  0.70953780  0.91822036    -0.20300
F2140       F  0.59282406  0.73581177  0.87494457    -0.21500
F2141       F  0.64277824  0.71745304  0.86235613    -0.18700
F2142       F  0.57462009  0.58093317  0.79424212    -0.18800
F2143       F  0.52580100  0.59194547  0.81741985    -0.22600
F2144       F  0.55988075  0.56023253  0.84874210    -0.24200
C2145       C  0.54869707  0.58366165  0.59322436    -0.11000
C2146       C  0.57698030  0.60258693  0.59634057     0.11600
C2147       C  0.60147363  0.59805467  0.57065393    -0.02800
C2148       C  0.59802907  0.57191059  0.54604985    -0.05600
C2149       C  0.56926787  0.55220041  0.54000495    -0.16300
C2150       C  0.54216971  0.56454473  0.56167895     0.02600
C2151       C  0.57898308  0.62838220  0.62475113     0.12500
C2152       C  0.63011110  0.62188355  0.56485358     0.63200
H2153       H  0.61748436  0.57095720  0.52774863     0.12600
C2154       C  0.50673858  0.56900239  0.55104778     0.55300
H2155       H  0.52915450  0.58899493  0.61187277     0.08400
C2156       C  0.56554710  0.65971583  0.61953793    -0.05400
C2157       C  0.57007866  0.68302227  0.64708518    -0.06200
C2158       C  0.58826067  0.67656275  0.67880805    -0.15800
C2159       C  0.60237992  0.64567362  0.68375024    -0.01400
C2160       C  0.59669118  0.62173698  0.65688878    -0.08900
C2161       C  0.54620302  0.66876457  0.58552739     0.65400
H2162       H  0.55937280  0.70678833  0.64411853     0.10800
C2163       C  0.62292713  0.63790273  0.71727115     0.63800
H2164       H  0.60623632  0.59760154  0.66050967     0.08200
F2165       F  0.49975870  0.60174072  0.54985902    -0.19300
F2166       F  0.48644475  0.55525856  0.57708724    -0.15500
F2167       F  0.49885077  0.55749146  0.51771192    -0.19000
F2168       F  0.63180884  0.64707875  0.58965181    -0.22400
F2169       F  0.62781047  0.63553334  0.52997204    -0.23900
F2170       F  0.65865014  0.60537005  0.56738313    -0.17800
F2171       F  0.63214710  0.60566250  0.71808642    -0.20300
F2172       F  0.60559695  0.64335993  0.74867589    -0.21500
F2173       F  0.65070409  0.65764187  0.71724045    -0.18700
F2174       F  0.53813932  0.70136968  0.58493349    -0.18800
F2175       F  0.51769246  0.65044087  0.58488806    -0.22600
F2176       F  0.56397707  0.66317707  0.55440256    -0.24200
C2177       C  0.91238325  0.99053231  0.88893064    -0.11000
C2178       C  0.94612003  0.48984703  0.87510182     0.11600
C2179       C  0.95123242  0.49547730  0.83689540    -0.02800
C2180       C  0.92419706  0.49439210  0.81282216    -0.05600
C2181       C  0.88966814  0.99288264  0.82714464    -0.16300
C2182       C  0.88496119  0.99035727  0.86546193     0.02600
C2183       C  0.97235061  0.49195418  0.90393589     0.12500
C2184       C  0.98421536  0.50205254  0.81959856     0.63200
H2185       H  0.92776253  0.49948394  0.78379203     0.12600
C2186       C  0.85101222  0.98833120  0.88122980     0.55300
H2187       H  0.90922765  0.98932902  0.91843090     0.08400
C2188       C  0.98318260  0.52167397  0.91905630    -0.05400
C2189       C  0.00530947  0.52121374  0.94920083    -0.06200
C2190       C  0.01818141  0.99521359  0.96457231    -0.15800
C2191       C  0.99696666  0.96674995  0.95470651    -0.01400
C2192       C  0.97974144  0.96629309  0.92082587    -0.08900
C2193       C  0.96945773  0.55368181  0.90494804     0.65400
H2194       H  0.00861883  0.54322984  0.96207073     0.10800
C2195       C  0.48068066  0.93496775  0.97898778     0.63800
H2196       H  0.96700675  0.94409900  0.91213026     0.08200
F2197       F  0.83523881  0.01693260  0.87316151    -0.19300
F2198       F  0.85149816  0.98386908  0.91898400    -0.15500
F2199       F  0.83371963  0.96233979  0.86602188    -0.19000
F2200       F  0.99104676  0.47661748  0.79657485    -0.22400
F2201       F  0.00908396  0.50508187  0.84492879    -0.23900
F2202       F  0.98360886  0.53070570  0.79904012    -0.17800
F2203       F  0.44813734  0.94189055  0.98241979    -0.20300
F2204       F  0.49292319  0.93195966  0.01344699    -0.21500
F2205       F  0.48200642  0.90479228  0.96249269    -0.18700
F2206       F  0.97784305  0.57957733  0.92717052    -0.18800
F2207       F  0.93591303  0.55156255  0.90369609    -0.22600
F2208       F  0.98097871  0.56062742  0.87013731    -0.24200
C2209       C  0.99350494  0.49070378  0.60212728    -0.11000
C2210       C  0.96078056  0.99800900  0.59317938     0.11600
C2211       C  0.95372171  0.00260538  0.55607232    -0.02800
C2212       C  0.97940876  0.00308122  0.53101196    -0.05600
C2213       C  0.01373604  0.99966469  0.53955309    -0.16300
C2214       C  0.01987185  0.49384641  0.57776697     0.02600
C2215       C  0.93544337  0.99874589  0.62142069     0.12500
C2216       C  0.91893173  0.00837339  0.54308294     0.63200
H2217       H  0.97080934  0.00833386  0.50418873     0.12600
C2218       C  0.54832190  0.49382086  0.59763966     0.55300
H2219       H  0.99794916  0.48840327  0.63150512     0.08400
C2220       C  0.91576990  0.97115965  0.63093410    -0.05400
C2221       C  0.89207744  0.97466464  0.65773519    -0.06200
C2222       C  0.88737748  0.00452946  0.67546008    -0.15800
C2223       C  0.91062921  0.52633525  0.66548896    -0.01400
C2224       C  0.93403818  0.52226586  0.63818906    -0.08900
C2225       C  0.91877292  0.93740384  0.61459121     0.65400
H2226       H  0.87692467  0.95343606  0.66470219     0.10800
C2227       C  0.91051380  0.55833010  0.68612951     0.63800
H2228       H  0.95114245  0.54200615  0.63173548     0.08200
F2229       F  0.54958327  0.46622620  0.61977748    -0.19300
F2230       F  0.55311278  0.52065469  0.61972402    -0.15500
F2231       F  0.57114421  0.49299092  0.57233681    -0.19000
F2232       F  0.90681699  0.03495992  0.56089487    -0.22400
F2233       F  0.89945997  0.98117586  0.55080456    -0.23900
F2234       F  0.91674927  0.01460600  0.50567422    -0.17800
F2235       F  0.91413018  0.55232090  0.72340553    -0.20300
F2236       F  0.88167865  0.57390355  0.67942313    -0.21500
F2237       F  0.93562361  0.57946869  0.67537191    -0.18700
F2238       F  0.88874103  0.92657056  0.60165339    -0.18800
F2239       F  0.92900468  0.91598945  0.64173083    -0.22600
F2240       F  0.94028550  0.93653994  0.58580179    -0.24200
C2241       C  0.68241772  0.97839049  0.94805494    -0.11000
C2242       C  0.67887031  0.49084585  0.91624923     0.11600
C2243       C  0.64916154  0.50534076  0.90947076    -0.02800
C2244       C  0.62516449  0.50414771  0.93722359    -0.05600
C2245       C  0.62689617  0.99087831  0.97159969    -0.16300
C2246       C  0.65891453  0.97543498  0.97596516     0.02600
C2247       C  0.70544413  0.49136844  0.88853928     0.12500
C2248       C  0.64360363  0.52283329  0.87283245     0.63200
H2249       H  0.60350436  0.51517444  0.93051063     0.12600
C2250       C  0.67308108  0.95697307  0.00892679     0.55300
H2251       H  0.70632561  0.96834203  0.95201550     0.08400
C2252       C  0.73164084  0.51468402  0.88863601    -0.05400
C2253       C  0.75372021  0.51519715  0.85939559    -0.06200
C2254       C  0.74905858  0.99777928  0.83025084    -0.15800
C2255       C  0.72245660  0.97491988  0.82910147    -0.01400
C2256       C  0.70036982  0.97403865  0.85828246    -0.08900
C2257       C  0.73763503  0.53994816  0.91816505     0.65400
H2258       H  0.77356407  0.53318085  0.85943905     0.10800
C2259       C  0.71653501  0.95214478  0.79696526     0.63800
H2260       H  0.68013766  0.95653650  0.85830954     0.08200
F2261       F  0.69631695  0.97599052  0.02653995    -0.19300
F2262       F  0.68911089  0.92982603  0.99719655    -0.15500
F2263       F  0.65083491  0.94659591  0.53291441    -0.19000
F2264       F  0.64321518  0.50060420  0.84461577    -0.22400
F2265       F  0.66818094  0.54581041  0.86632685    -0.23900
F2266       F  0.61468741  0.53878967  0.87192327    -0.17800
F2267       F  0.73958592  0.92826511  0.79727177    -0.20300
F2268       F  0.71810131  0.96963172  0.76419155    -0.21500
F2269       F  0.68621911  0.93671002  0.79860265    -0.18700
F2270       F  0.73480379  0.57083241  0.90280919    -0.18800
F2271       F  0.76879943  0.53699280  0.93201271    -0.22600
F2272       F  0.71646970  0.53684036  0.94716757    -0.24200
C2273       C  0.64792523  0.02223754  0.60059833    -0.11000
C2274       C  0.67701293  0.53557510  0.59162643     0.11600
C2275       C  0.68075280  0.54015022  0.55373978    -0.02800
C2276       C  0.65562407  0.52892314  0.52975340    -0.05600
C2277       C  0.62847741  0.00626683  0.53761851    -0.16300
C2278       C  0.63016523  0.00029867  0.57790315     0.02600
C2279       C  0.70512134  0.53155436  0.61766767     0.12500
C2280       C  0.71062363  0.55727499  0.53743459     0.63200
H2281       H  0.66058983  0.53520177  0.50173304     0.12600
C2282       C  0.62726300  0.96827607  0.60015629     0.55300
H2283       H  0.64540780  0.02022604  0.63023058     0.08400
C2284       C  0.71135229  0.55232925  0.64778352    -0.05400
C2285       C  0.73458443  0.54327742  0.67444111    -0.06200
C2286       C  0.75056756  0.01679802  0.67190103    -0.15800
C2287       C  0.74610071  0.99571639  0.64145704    -0.01400
C2288       C  0.72331594  0.00387881  0.61395885    -0.08900
C2289       C  0.69373608  0.58403328  0.65164576     0.65400
H2290       H  0.73947534  0.55919071  0.69743351     0.10800
C2291       C  0.76545963  0.96499963  0.63727960     0.63800
H2292       H  0.71855348  0.98733598  0.59152931     0.08200
F2293       F  0.61187107  0.97307556  0.63324303    -0.19300
F2294       F  0.65807719  0.95723430  0.60800364    -0.15500
F2295       F  0.61112255  0.94385463  0.58349237    -0.19000
F2296       F  0.72785035  0.53536990  0.51737036    -0.22400
F2297       F  0.73108747  0.57044438  0.56398730    -0.23900
F2298       F  0.70117684  0.58246842  0.51435622    -0.17800
F2299       F  0.75718591  0.94265345  0.66468992    -0.20300
F2300       F  0.79833089  0.97273469  0.63931665    -0.21500
F2301       F  0.75948105  0.95020147  0.60383898    -0.18700
F2302       F  0.70289895  0.60045292  0.68322143    -0.18800
F2303       F  0.66073889  0.57772687  0.65311703    -0.22600
F2304       F  0.70062797  0.60425576  0.62191312    -0.24200
loop_ 
_geom_bond_atom_site_label_1 
_geom_bond_atom_site_label_2 
_geom_bond_distance 
_geom_bond_site_symmetry_2 
_ccdc_geom_bond_type 
C1          C261   1.715       .  S
C1          C517   1.648   1_554  S
C1          C593   1.766       .  S
C1          C320   1.732       .  S
O2           V10   1.892       .  S
O2          C588   1.261   1_545  A
O3           V10   1.891       .  S
O3          C589   1.263       .  A
O4           V10   1.903       .  S
O4          C590   1.267   1_545  A
O5           V10   1.903       .  S
O5          C591   1.265   1_545  A
O6           V11   1.878       .  S
O6           C15   1.261       .  A
O7           V11   1.885       .  S
O7           C14   1.259       .  A
O8           V11   1.914       .  S
O8           C13   1.268       .  A
O9           V11   1.916       .  S
O9           C12   1.268       .  A
V10         V587   2.083   1_545  T
V11         V586   2.085       .  T
C12         O578   1.262       .  A
C12         C165   1.478       .  S
C13         O579   1.263       .  A
C13         C270   1.492       .  S
C14         O580   1.267       .  A
C14         C238   1.476       .  S
C15         O581   1.265       .  A
C15         C206   1.486       .  S
C16        C1326   1.661       .  S
C16        C1637   1.687       .  S
C16          C32   1.724       .  S
C16         C881   1.745       .  S
C17         C133   1.652       .  S
C17         C389   1.644   1_554  S
C17         C577   1.768   1_545  S
C17         C880   1.744   1_545  S
O18          V26   1.904       .  S
O18          C28   1.264       .  A
O19          V26   1.901       .  S
O19          C29   1.264       .  A
O20          V26   1.908       .  S
O20          C30   1.265       .  A
O21          V26   1.907       .  S
O21          C31   1.265       .  A
O22          V27   1.900       .  S
O22          C31   1.267       .  A
O23          V27   1.894       .  S
O23          C30   1.264       .  A
O24          V27   1.898       .  S
O24          C29   1.263       .  A
O25          V27   1.896       .  S
O25          C28   1.263       .  A
V26          V27   2.086       .  T
C28          C78   1.473       .  S
C29         C110   1.474       .  S
C30         C142   1.479       .  S
C31          C37   1.499       .  S
C32          C46   1.663       .  S
C32         C357   1.639       .  S
C32         C289   1.725       .  S
C33          C34   1.404       .  A
C33          C38   1.414       .  A
C33          H43   1.083       .  S
C34          C39   1.492       .  S
C34          C35   1.420       .  A
C35          C40   1.520       .  S
C35          C36   1.403       .  A
C36          C37   1.406       .  A
C36          H41   1.084       .  S
C37          C38   1.426       .  A
C38          C42   1.519       .  S
C39          C44   1.405       .  A
C39          C48   1.397       .  A
C40          F56   1.377       .  S
C40          F57   1.384   1_455  S
C40          F58   1.383       .  S
C42          F53   1.382       .  S
C42          F54   1.385       .  S
C42          F55   1.384       .  S
C44          C49   1.528       .  S
C44          C45   1.408       .  A
C45          C46   1.436       .  A
C45          H50   1.068       .  S
C46          C47   1.457       .  A
C47          C51   1.535       .  S
C47          C48   1.420       .  A
C48          H52   1.085       .  S
C49          F62   1.385       .  S
C49          F63   1.384       .  S
C49          F64   1.378       .  S
C51          F59   1.380       .  S
C51          F60   1.363       .  S
C51          F61   1.375       .  S
C65          C66   1.379       .  A
C65          C70   1.418       .  A
C65          H75   1.085       .  S
C66          C71   1.485       .  S
C66          C67   1.394       .  A
C67          C72   1.524       .  S
C67          C68   1.411       .  A
C68          C69   1.419       .  A
C68          H73   1.025       .  S
C69         C320   1.636       .  S
C69          C70   1.484       .  A
C70          C74   1.527   1_554  S
C71          C76   1.415       .  A
C71          C80   1.404       .  A
C72          F88   1.382       .  S
C72          F89   1.381       .  S
C72          F90   1.379       .  S
C74          F85   1.377       .  S
C74          F86   1.381   1_556  S
C74          F87   1.358       .  S
C76          C81   1.520       .  S
C76          C77   1.407       .  A
C77          C78   1.403       .  A
C77          H82   1.084       .  S
C78          C79   1.415       .  A
C79          C83   1.518       .  S
C79          C80   1.407       .  A
C80          H84   1.084       .  S
C81          F94   1.384       .  S
C81          F95   1.382       .  S
C81          F96   1.381       .  S
C83          F91   1.383       .  S
C83          F92   1.383       .  S
C83          F93   1.385       .  S
C97          C98   1.398       .  A
C97         C102   1.400       .  A
C97         H107   1.084       .  S
C98         C103   1.493       .  S
C98          C99   1.422       .  A
C99         C104   1.518       .  S
C99         C100   1.418       .  A
C100        C101   1.429       .  A
C100        H105   1.054       .  S
C101        C305   1.646       .  S
C101        C102   1.444       .  A
C102        C106   1.540       .  S
C103        C108   1.424       .  A
C103        C112   1.410       .  A
C104        F120   1.382       .  S
C104        F121   1.383       .  S
C104        F122   1.377       .  S
C106        F117   1.389       .  S
C106        F118   1.364       .  S
C106        F119   1.376       .  S
C108        C113   1.520       .  S
C108        C109   1.405       .  A
C109        C110   1.400       .  A
C109        H114   1.085       .  S
C110        C111   1.410       .  A
C111        C115   1.517       .  S
C111        C112   1.405       .  A
C112        H116   1.081       .  S
C113        F126   1.384       .  S
C113        F127   1.383       .  S
C113        F128   1.376       .  S
C115        F123   1.384       .  S
C115        F124   1.384       .  S
C115        F125   1.382       .  S
C129        C130   1.384       .  A
C129        C134   1.417       .  A
C129        H139   1.086       .  S
C130        C135   1.498       .  S
C130        C131   1.402       .  A
C131        C136   1.523       .  S
C131        C132   1.414       .  A
C132        C133   1.432       .  A
C132        H137   1.047       .  S
C133        C134   1.476       .  A
C134        C138   1.521       .  S
C135        C140   1.423       .  A
C135        C144   1.405       .  A
C136        F152   1.376       .  S
C136        F153   1.382       .  S
C136        F154   1.383       .  S
C138        F149   1.380       .  S
C138        F150   1.375   1_455  S
C138        F151   1.347       .  S
C140        C145   1.515       .  S
C140        C141   1.403       .  A
C141        C142   1.397       .  A
C141        H146   1.084       .  S
C142        C143   1.416       .  A
C143        C147   1.516       .  S
C143        C144   1.411       .  A
C144        H148   1.081       .  S
C145        F158   1.385       .  S
C145        F159   1.379       .  S
C145        F160   1.377       .  S
C147        F155   1.384       .  S
C147        F156   1.379       .  S
C147        F157   1.382       .  S
C161        C166   1.407       .  A
C161        C738   1.407       .  A
C161        H171   1.085       .  S
C162        C167   1.498       .  S
C162        C163   1.421       .  A
C162        C737   1.409       .  A
C163        C168   1.517       .  S
C163        C164   1.408       .  A
C164        C741   1.403       .  A
C164        H169   1.085       .  S
C165        C166   1.417       .  A
C165        C740   1.405       .  A
C166        C170   1.519       .  S
C167        C172   1.402   1_565  A
C167        C752   1.387       .  A
C168        F184   1.383       .  S
C168        F185   1.377   1_565  S
C168        F186   1.384   1_565  S
C170        F181   1.383       .  S
C170        F182   1.384       .  S
C170        F183   1.380       .  S
C172        C177   1.524       .  S
C172        C173   1.419       .  A
C173        C750   1.427   1_545  A
C173        H178   1.026       .  S
C174       C1168   1.657       .  S
C174        C175   1.480       .  A
C174        C749   1.426       .  A
C175       C1331   1.534       .  S
C175        C176   1.415       .  A
C176        C743   1.386       .  A
C176        H180   1.086       .  S
C177        F190   1.379       .  S
C177        F191   1.383       .  S
C177        F192   1.380       .  S
C179       C1327   1.535       .  S
C179        F187   1.386       .  S
C179        F188   1.353       .  S
C179        F189   1.384       .  S
C193        C198   1.411       .  A
C193        C770   1.382       .  A
C193        H203   1.087       .  S
C194        C199   1.476       .  S
C194        C195   1.393       .  A
C194        C769   1.380       .  A
C195        C200   1.528       .  S
C195        C196   1.406       .  A
C196        C197   1.457       .  A
C196        H201   1.058   1_554  S
C197       C1456   1.686       .  S
C197        C774   1.469       .  A
C198       C1354   1.475       .  S
C198        C773   1.469       .  A
C199        C204   1.413       .  A
C199        C784   1.403       .  A
C200        F216   1.384       .  S
C200        F217   1.380       .  S
C200        F218   1.385       .  S
C202       C1350   1.475       .  S
C202        F213   1.382       .  S
C202        F214   1.379   1_565  S
C202        F215   1.322       .  S
C204        C209   1.521       .  S
C204        C205   1.397       .  A
C205        C206   1.410       .  A
C205        H210   1.084       .  S
C206        C783   1.421       .  A
C207        C211   1.521       .  S
C207        C208   1.408       .  A
C207        C782   1.423   1_545  A
C208        C775   1.405   1_545  A
C208        H212   1.082       .  S
C209        F222   1.384       .  S
C209        F223   1.383       .  S
C209        F224   1.380       .  S
C211        F219   1.384       .  S
C211        F220   1.383       .  S
C211        F221   1.385       .  S
C225        C230   1.413       .  A
C225        C802   1.376       .  A
C225        H235   1.084       .  S
C226        C231   1.484       .  S
C226        C227   1.394   1_565  A
C226        C801   1.376       .  A
C227        C232   1.522       .  S
C227        C228   1.416       .  A
C228        C805   1.418   1_545  A
C228        H233   1.044       .  S
C229        C289   1.654       .  S
C229        C230   1.488       .  A
C229        C804   1.418       .  A
C230        C234   1.533       .  S
C231        C236   1.419   1_565  A
C231        C816   1.402       .  A
C232        F248   1.382       .  S
C232        F249   1.382       .  S
C232        F250   1.375       .  S
C234        F245   1.376       .  S
C234        F246   1.383       .  S
C234        F535   1.356       .  S
C236        C241   1.517       .  S
C236        C237   1.400       .  A
C237        C814   1.401   1_545  A
C237        H242   1.085       .  S
C238        C239   1.420       .  A
C238        C813   1.400       .  A
C239        C243   1.521       .  S
C239        C240   1.405       .  A
C240        C807   1.401       .  A
C240        H244   1.083       .  S
C241        F254   1.383       .  S
C241        F255   1.383       .  S
C241        F256   1.376       .  S
C243        F251   1.382       .  S
C243        F252   1.384       .  S
C243        F253   1.385       .  S
F247        C522   1.358       .  S
C257        C262   1.414       .  A
C257        C834   1.380       .  A
C257        H267   1.086       .  S
C258        C263   1.501       .  S
C258        C259   1.397       .  A
C258        C833   1.381       .  A
C259        C264   1.520       .  S
C259        C260   1.419       .  A
C260        C837   1.461       .  A
C260        H265   1.070       .  S
C261        C262   1.488       .  A
C261        C836   1.461       .  A
C262        C266   1.533       .  S
C263        C268   1.413       .  A
C263        C848   1.406       .  A
C264        F280   1.381       .  S
C264        F281   1.383       .  S
C264        F282   1.383       .  S
C266        F277   1.386       .  S
C266        F278   1.387       .  S
C266        F279   1.332       .  S
C268        C273   1.511       .  S
C268        C269   1.407       .  A
C269        C846   1.409       .  A
C269        H274   1.082       .  S
C270        C271   1.420       .  A
C270        C845   1.405       .  A
C271        C275   1.518       .  S
C271        C272   1.413       .  A
C272        C839   1.407       .  A
C272        H276   1.081       .  S
C273        F286   1.385       .  S
C273        F287   1.378       .  S
C273        F288   1.381       .  S
C275        F283   1.382       .  S
C275        F284   1.384       .  S
C275        F285   1.385       .  S
C289        C549   1.707       .  S
C289        C881   1.770       .  S
O290        V298   1.894       .  S
O290        C876   1.261   1_545  A
O291        V298   1.894       .  S
O291        C877   1.264       .  A
O292        V298   1.911       .  S
O292        C878   1.269   1_545  A
O293        V298   1.906       .  S
O293        C879   1.266   1_545  A
O294        V299   1.884       .  S
O294        C303   1.262       .  A
O295        V299   1.887       .  S
O295        C302   1.260       .  A
O296        V299   1.911       .  S
O296        C301   1.267       .  A
O297        V299   1.913       .  S
O297        C300   1.267       .  A
V298        V875   2.083   1_545  T
V299        V874   2.084       .  T
C300        O866   1.262       .  A
C300        C453   1.476       .  S
C301        O867   1.264       .  A
C301        C558   1.496       .  S
C302        O868   1.267       .  A
C302        C526   1.483       .  S
C303        O869   1.264       .  A
C303        C494   1.488       .  S
C304       C1614   1.662   1_554  S
C304       C1349   1.687       .  S
C304        C593   1.745       .  S
C304        C320   1.726       .  S
C305        C421   1.659       .  S
C305        C865   1.767   1_545  S
C305        C592   1.741   1_545  S
O306        V314   1.911       .  S
O306        C316   1.266       .  A
O307        V314   1.905       .  S
O307        C317   1.265       .  A
O308        V314   1.909       .  S
O308        C318   1.265       .  A
O309        V314   1.911       .  S
O309        C319   1.265       .  A
O310        V315   1.906       .  S
O310        C319   1.268       .  A
O311        V315   1.895       .  S
O311        C318   1.264       .  A
O312        V315   1.897       .  S
O312        C317   1.262       .  A
O313        V315   1.894       .  S
O313        C316   1.262       .  A
V314        V315   2.086       .  T
C316        C366   1.475       .  S
C317        C398   1.478       .  S
C318        C430   1.479       .  S
C319        C325   1.501       .  S
C320        C334   1.670   1_554  S
C321        C322   1.401       .  A
C321        C326   1.412       .  A
C321        H331   1.083       .  S
C322        C327   1.492       .  S
C322        C323   1.417       .  A
C323        C328   1.521       .  S
C323        C324   1.409       .  A
C324        C325   1.408       .  A
C324        H329   1.083       .  S
C325        C326   1.427       .  A
C326        C330   1.517       .  S
C327        C332   1.408       .  A
C327        C336   1.396       .  A
C328        F344   1.379       .  S
C328        F345   1.385       .  S
C328        F346   1.382       .  S
C330        F341   1.378       .  S
C330        F342   1.385       .  S
C330        F343   1.383       .  S
C332        C337   1.529       .  S
C332        C333   1.415       .  A
C333        C334   1.440       .  A
C333        H338   1.069       .  S
C334        C335   1.455       .  A
C335        C339   1.534       .  S
C335        C336   1.416       .  A
C336        H340   1.085       .  S
C337        F350   1.384       .  S
C337        F351   1.383       .  S
C337        F352   1.379       .  S
C339        F347   1.382       .  S
C339        F348   1.365       .  S
C339        F349   1.374       .  S
C353        C354   1.380       .  A
C353        C358   1.418       .  A
C353        H363   1.084       .  S
C354        C359   1.488       .  S
C354        C355   1.396       .  A
C355        C360   1.523       .  S
C355        C356   1.413       .  A
C356        C357   1.419       .  A
C356        H361   1.025       .  S
C357        C358   1.484       .  A
C358        C362   1.531       .  S
C359        C364   1.418       .  A
C359        C368   1.405       .  A
C360        F376   1.381       .  S
C360        F377   1.382       .  S
C360        F378   1.380   1_455  S
C362        F373   1.378       .  S
C362        F374   1.380       .  S
C362        F375   1.360       .  S
C364        C369   1.521       .  S
C364        C365   1.409       .  A
C365        C366   1.403       .  A
C365        H370   1.083       .  S
C366        C367   1.413       .  A
C367        C371   1.517       .  S
C367        C368   1.407       .  A
C368        H372   1.084       .  S
C369        F382   1.384       .  S
C369        F383   1.381       .  S
C369        F384   1.381       .  S
C371        F379   1.385       .  S
C371        F380   1.383       .  S
C371        F381   1.383       .  S
C385        C386   1.400       .  A
C385        C390   1.399       .  A
C385        H395   1.084       .  S
C386        C391   1.493       .  S
C386        C387   1.424       .  A
C387        C392   1.519       .  S
C387        C388   1.419       .  A
C388        C389   1.427       .  A
C388        H393   1.051       .  S
C389        C390   1.441       .  A
C390        C394   1.537       .  S
C391        C396   1.423       .  A
C391        C400   1.409       .  A
C392        F408   1.382       .  S
C392        F409   1.383       .  S
C392        F410   1.379       .  S
C394        F405   1.388       .  S
C394        F406   1.363   1_556  S
C394        F407   1.378       .  S
C396        C401   1.521       .  S
C396        C397   1.407       .  A
C397        C398   1.403       .  A
C397        H402   1.085       .  S
C398        C399   1.410       .  A
C399        C403   1.514       .  S
C399        C400   1.403       .  A
C400        H404   1.081       .  S
C401        F414   1.383       .  S
C401        F415   1.383       .  S
C401        F416   1.377       .  S
C403        F411   1.384       .  S
C403        F412   1.384       .  S
C403        F413   1.382       .  S
C417        C418   1.387       .  A
C417        C422   1.422       .  A
C417        H427   1.087       .  S
C418        C423   1.495       .  S
C418        C419   1.400       .  A
C419        C424   1.524       .  S
C419        C420   1.411       .  A
C420        C421   1.433       .  A
C420        H425   1.047       .  S
C421        C422   1.479       .  A
C422        C426   1.522       .  S
C423        C428   1.422       .  A
C423        C432   1.404       .  A
C424        F440   1.381       .  S
C424        F441   1.383       .  S
C424        F442   1.373       .  S
C426        F437   1.380       .  S
C426        F438   1.374   1_455  S
C426        F439   1.343       .  S
C428        C433   1.514       .  S
C428        C429   1.403       .  A
C429        C430   1.397       .  A
C429        H434   1.084       .  S
C430        C431   1.416       .  A
C431        C435   1.515       .  S
C431        C432   1.412       .  A
C432        H436   1.081       .  S
C433        F446   1.384       .  S
C433        F447   1.375       .  S
C433        F448   1.379       .  S
C435        F443   1.384       .  S
C435        F444   1.379       .  S
C435        F445   1.383       .  S
C449       C1026   1.405       .  A
C449        C454   1.405       .  A
C449        H459   1.085       .  S
C450        C455   1.493       .  S
C450       C1025   1.406       .  A
C450        C451   1.418       .  A
C451        C456   1.517       .  S
C451        C452   1.410       .  A
C452       C1029   1.403       .  A
C452        H457   1.084       .  S
C453       C1028   1.406       .  A
C453        C454   1.416       .  A
C454        C458   1.518       .  S
C455        C460   1.403   1_565  A
C455       C1040   1.386       .  A
C456        F472   1.379       .  S
C456        F473   1.379   1_565  S
C456        F474   1.385   1_565  S
C458        F469   1.383       .  S
C458        F470   1.383       .  S
C458        F471   1.380       .  S
C460        C465   1.525       .  S
C460        C461   1.416       .  A
C461       C1038   1.423   1_545  A
C461        H466   1.025       .  S
C462       C1456   1.660   1_556  S
C462       C1037   1.425       .  A
C462        C463   1.479       .  A
C463       C1619   1.535       .  S
C463        C464   1.415       .  A
C464       C1031   1.387       .  A
C464        H468   1.086       .  S
C465        F478   1.378       .  S
C465        F479   1.383       .  S
C465        F480   1.380       .  S
C467       C1615   1.533       .  S
C467        F475   1.386       .  S
C467        F476   1.352   1_556  S
C467        F477   1.384       .  S
C481       C1058   1.383       .  A
C481        C486   1.412       .  A
C481        H491   1.087       .  S
C482        C487   1.476       .  S
C482       C1057   1.381       .  A
C482        C483   1.391       .  A
C483        C488   1.528       .  S
C483        C484   1.406       .  A
C484        C485   1.458       .  A
C484        H489   1.059       .  S
C485       C1168   1.689       .  S
C485       C1062   1.470       .  A
C486       C1642   1.476       .  S
C486       C1061   1.470       .  A
C487        C492   1.412       .  A
C487       C1072   1.400       .  A
C488        F504   1.383       .  S
C488        F505   1.382       .  S
C488        F506   1.385       .  S
C490       C1638   1.475       .  S
C490        F501   1.380       .  S
C490        F502   1.379   1_565  S
C490        F503   1.322       .  S
C492        C497   1.520       .  S
C492        C493   1.400       .  A
C493        C494   1.411       .  A
C493        H498   1.084       .  S
C494       C1071   1.423       .  A
C495        C499   1.520       .  S
C495       C1070   1.422       .  A
C495        C496   1.407       .  A
C496       C1063   1.403   1_545  A
C496        H500   1.082       .  S
C497        F510   1.384       .  S
C497        F511   1.383       .  S
C497        F512   1.380       .  S
C499        F507   1.384       .  S
C499        F508   1.383       .  S
C499        F509   1.385       .  S
C513       C1090   1.377       .  A
C513        C518   1.409       .  A
C513        H523   1.086       .  S
C514        C519   1.485       .  S
C514       C1089   1.377       .  A
C514        C515   1.392   1_565  A
C515        C520   1.524       .  S
C515        C516   1.414       .  A
C516       C1093   1.417   1_545  A
C516        H521   1.035       .  S
C517       C1092   1.417       .  A
C517        C518   1.483       .  A
C518        C522   1.528   1_556  S
C519        C524   1.420   1_565  A
C519       C1104   1.401       .  A
C520        F536   1.382   1_545  S
C520        F537   1.382       .  S
C520        F538   1.375       .  S
C522        F533   1.376       .  S
C522        F534   1.384   1_554  S
C524        C529   1.518       .  S
C524        C525   1.403       .  A
C525       C1102   1.402   1_545  A
C525        H530   1.084       .  S
C526       C1101   1.402       .  A
C526        C527   1.422       .  A
C527        C531   1.521       .  S
C527        C528   1.405       .  A
C528       C1095   1.400       .  A
C528        H532   1.083       .  S
C529        F542   1.383       .  S
C529        F543   1.383       .  S
C529        F544   1.377       .  S
C531        F539   1.383       .  S
C531        F540   1.384       .  S
C531        F541   1.385       .  S
C545       C1122   1.380       .  A
C545        C550   1.413       .  A
C545        H555   1.087       .  S
C546        C551   1.499       .  S
C546       C1121   1.381       .  A
C546        C547   1.399       .  A
C547        C552   1.521       .  S
C547        C548   1.421       .  A
C548       C1125   1.461       .  A
C548        H553   1.070       .  S
C549       C1124   1.459       .  A
C549        C550   1.490       .  A
C550        C554   1.536       .  S
C551        C556   1.414       .  A
C551       C1136   1.406   1_545  A
C552        F568   1.381       .  S
C552        F569   1.382       .  S
C552        F570   1.384       .  S
C554        F565   1.386       .  S
C554        F566   1.386       .  S
C554        F567   1.334       .  S
C556        C561   1.515       .  S
C556        C557   1.409       .  A
C557       C1134   1.410       .  A
C557        H562   1.082       .  S
C558       C1133   1.409       .  A
C558        C559   1.422       .  A
C559        C563   1.520       .  S
C559        C560   1.410       .  A
C560       C1127   1.405       .  A
C560        H564   1.081       .  S
C561        F574   1.384       .  S
C561        F575   1.378       .  S
C561        F576   1.381       .  S
C563        F571   1.383       .  S
C563        F572   1.384       .  S
C563        F573   1.385       .  S
C577       C1093   1.655   1_554  S
C577        C837   1.708   1_565  S
C577        C896   1.726   1_554  S
O578        V586   1.896       .  S
O579        V586   1.895       .  S
O580        V586   1.906       .  S
O581        V586   1.904       .  S
O582        V587   1.887       .  S
O582        C591   1.263       .  A
O583        V587   1.894       .  S
O583        C590   1.261       .  A
O584        V587   1.917       .  S
O584        C589   1.268   1_565  A
O585        V587   1.919       .  S
O585        C588   1.269       .  A
C588        C741   1.478       .  S
C589        C846   1.496       .  S
C590        C814   1.483       .  S
C591        C782   1.491       .  S
C592       C1902   1.659       .  S
C592       C2213   1.684       .  S
C592        C608   1.725       .  S
C593        C965   1.650   1_554  S
C593        C709   1.657       .  S
O594        V602   1.908       .  S
O594        C604   1.265       .  A
O595        V602   1.906       .  S
O595        C605   1.266       .  A
O596        V602   1.914       .  S
O596        C606   1.267       .  A
O597        V602   1.914       .  S
O597        C607   1.266       .  A
O598        V603   1.899       .  S
O598        C607   1.267       .  A
O599        V603   1.894       .  S
O599        C606   1.263       .  A
O600        V603   1.902       .  S
O600        C605   1.264       .  A
O601        V603   1.895       .  S
O601        C604   1.262       .  A
V602        V603   2.085       .  T
C604        C654   1.472       .  S
C605        C686   1.481       .  S
C606        C718   1.483       .  S
C607        C613   1.501       .  S
C608        C622   1.668       .  S
C608        C933   1.641       .  S
C608        C865   1.729       .  S
C609        C610   1.405       .  A
C609        C614   1.414       .  A
C609        H619   1.083       .  S
C610        C615   1.494       .  S
C610        C611   1.420       .  A
C611        C616   1.520       .  S
C611        C612   1.404       .  A
C612        C613   1.407       .  A
C612        H617   1.084       .  S
C613        C614   1.425       .  A
C614        C618   1.517       .  S
C615        C620   1.407       .  A
C615        C624   1.397       .  A
C616        F632   1.377       .  S
C616        F633   1.384   1_455  S
C616        F634   1.383       .  S
C618        F629   1.380       .  S
C618        F630   1.385       .  S
C618        F631   1.383       .  S
C620        C625   1.528       .  S
C620        C621   1.412       .  A
C621        C622   1.438       .  A
C621        H626   1.069       .  S
C622        C623   1.457       .  A
C623        C627   1.535       .  S
C623        C624   1.417       .  A
C624        H628   1.085       .  S
C625        F638   1.385       .  S
C625        F639   1.383       .  S
C625        F640   1.378       .  S
C627        F635   1.381       .  S
C627        F636   1.365   1_565  S
C627        F637   1.376       .  S
C641        C642   1.382       .  A
C641        C646   1.418       .  A
C641        H651   1.085       .  S
C642        C647   1.484       .  S
C642        C643   1.393       .  A
C643        C648   1.522       .  S
C643        C644   1.410       .  A
C644        C645   1.417       .  A
C644        H649   1.025       .  S
C645        C896   1.635   1_554  S
C645        C646   1.484       .  A
C646        C650   1.531   1_554  S
C647        C652   1.419       .  A
C647        C656   1.405       .  A
C648        F664   1.382       .  S
C648        F665   1.383       .  S
C648        F666   1.380   1_455  S
C650        F661   1.377       .  S
C650        F662   1.379   1_556  S
C650        F663   1.360       .  S
C652        C657   1.520       .  S
C652        C653   1.405       .  A
C653        C654   1.401       .  A
C653        H658   1.085       .  S
C654        C655   1.413       .  A
C655        C659   1.517       .  S
C655        C656   1.407       .  A
C656        H660   1.084       .  S
C657        F670   1.384       .  S
C657        F671   1.383       .  S
C657        F672   1.381       .  S
C659        F667   1.383       .  S
C659        F668   1.385       .  S
C659        F669   1.382       .  S
C673        C674   1.400       .  A
C673        C678   1.403       .  A
C673        H683   1.084       .  S
C674        C679   1.499       .  S
C674        C675   1.423       .  A
C675        C680   1.519       .  S
C675        C676   1.420       .  A
C676        C677   1.429       .  A
C676        H681   1.053       .  S
C677        C881   1.651       .  S
C677        C678   1.445       .  A
C678        C682   1.541       .  S
C679        C684   1.425       .  A
C679        C688   1.410       .  A
C680        F696   1.382       .  S
C680        F697   1.383       .  S
C680        F698   1.377       .  S
C682        F693   1.390       .  S
C682        F694   1.366       .  S
C682        F695   1.376       .  S
C684        C689   1.520       .  S
C684        C685   1.408       .  A
C685        C686   1.402       .  A
C685        H690   1.084       .  S
C686        C687   1.411       .  A
C687        C691   1.516       .  S
C687        C688   1.407       .  A
C688        H692   1.081       .  S
C689        F702   1.384       .  S
C689        F703   1.383       .  S
C689        F704   1.377       .  S
C691        F699   1.384       .  S
C691        F700   1.384       .  S
C691        F701   1.382       .  S
C705        C706   1.385       .  A
C705        C710   1.420       .  A
C705        H715   1.086       .  S
C706        C711   1.501       .  S
C706        C707   1.400       .  A
C707        C712   1.522       .  S
C707        C708   1.415       .  A
C708        C709   1.433       .  A
C708        H713   1.046       .  S
C709        C710   1.477       .  A
C710        C714   1.519       .  S
C711        C716   1.423       .  A
C711        C720   1.403       .  A
C712        F728   1.375       .  S
C712        F729   1.381       .  S
C712        F730   1.382       .  S
C714        F725   1.381       .  S
C714        F726   1.374   1_455  S
C714        F727   1.344       .  S
C716        C721   1.516       .  S
C716        C717   1.407       .  A
C717        C718   1.400       .  A
C717        H722   1.084       .  S
C718        C719   1.416       .  A
C719        C723   1.516       .  S
C719        C720   1.411       .  A
C720        H724   1.078       .  S
C721        F734   1.385       .  S
C721        F735   1.378       .  S
C721        F736   1.378       .  S
C723        F731   1.384       .  S
C723        F732   1.380       .  S
C723        F733   1.383       .  S
C737        C742   1.409       .  A
C737        H747   1.085       .  S
C738        C743   1.494       .  S
C738        C739   1.419       .  A
C739        C744   1.518       .  S
C739        C740   1.409       .  A
C740        H745   1.085       .  S
C741        C742   1.417       .  A
C742        C746   1.519       .  S
C743        C748   1.400       .  A
C744        F760   1.382       .  S
C744        F761   1.379       .  S
C744        F762   1.384       .  S
C746        F757   1.383       .  S
C746        F758   1.384       .  S
C746        F759   1.381       .  S
C748        C753   1.524       .  S
C748        C749   1.417       .  A
C749        H754   1.024       .  S
C750       C1744   1.662       .  S
C750        C751   1.481       .  A
C751       C1907   1.534       .  S
C751        C752   1.415       .  A
C752        H756   1.086       .  S
C753        F766   1.378       .  S
C753        F767   1.383       .  S
C753        F768   1.381       .  S
C755       C1903   1.534       .  S
C755        F763   1.385       .  S
C755        F764   1.355       .  S
C755        F765   1.384       .  S
C769        C774   1.409       .  A
C769        H779   1.087       .  S
C770        C775   1.483       .  S
C770        C771   1.395       .  A
C771        C776   1.528   1_565  S
C771        C772   1.410       .  A
C772        C773   1.457       .  A
C772        H777   1.059       .  S
C773       C2032   1.689       .  S
C774       C1930   1.475       .  S
C775        C780   1.415       .  A
C776        F792   1.383       .  S
C776        F793   1.380   1_545  S
C776        F794   1.385       .  S
C778       C1926   1.474       .  S
C778        F789   1.382       .  S
C778        F790   1.380       .  S
C778        F791   1.320       .  S
C780        C785   1.520       .  S
C780        C781   1.401       .  A
C781        C782   1.409       .  A
C781        H786   1.084       .  S
C783        C787   1.520       .  S
C783        C784   1.406       .  A
C784        H788   1.082       .  S
C785        F798   1.384       .  S
C785        F799   1.383       .  S
C785        F800   1.379       .  S
C787        F795   1.384       .  S
C787        F796   1.383       .  S
C787        F797   1.385       .  S
C801        C806   1.410       .  A
C801        H811   1.086       .  S
C802        C807   1.489       .  S
C802        C803   1.396       .  A
C803        C808   1.526       .  S
C803        C804   1.416       .  A
C804        H809   1.039       .  S
C805        C865   1.649       .  S
C805        C806   1.486       .  A
C806        C810   1.532       .  S
C807        C812   1.418       .  A
C808        F824   1.381       .  S
C808        F825   1.383       .  S
C808        F826   1.374       .  S
C810        F821   1.376       .  S
C810        F822   1.383       .  S
C810       F1111   1.358       .  S
C812        C817   1.516       .  S
C812        C813   1.404       .  A
C813        H818   1.083       .  S
C814        C815   1.423       .  A
C815        C819   1.520       .  S
C815        C816   1.408       .  A
C816        H820   1.084       .  S
C817        F830   1.385       .  S
C817        F831   1.381       .  S
C817        F832   1.377       .  S
C819        F827   1.382       .  S
C819        F828   1.384       .  S
C819        F829   1.385       .  S
F823       C1098   1.357       .  S
C833        C838   1.414       .  A
C833        H843   1.086       .  S
C834        C839   1.505       .  S
C834        C835   1.398       .  A
C835        C840   1.520       .  S
C835        C836   1.421       .  A
C836        H841   1.068       .  S
C837        C838   1.488       .  A
C838        C842   1.535   1_545  S
C839        C844   1.416       .  A
C840        F856   1.381       .  S
C840        F857   1.383       .  S
C840        F858   1.383       .  S
C842        F853   1.386       .  S
C842        F854   1.386       .  S
C842        F855   1.336       .  S
C844        C849   1.509       .  S
C844        C845   1.408       .  A
C845        H850   1.083       .  S
C846        C847   1.421   1_545  A
C847        C851   1.519       .  S
C847        C848   1.411   1_565  A
C848        H852   1.080   1_545  S
C849        F862   1.385       .  S
C849        F863   1.376       .  S
C849        F864   1.380       .  S
C851        F859   1.383       .  S
C851        F860   1.384       .  S
C851        F861   1.385       .  S
C865       C1125   1.709   1_565  S
O866        V874   1.896       .  S
O867        V874   1.897       .  S
O868        V874   1.906       .  S
O869        V874   1.899       .  S
O870        V875   1.882       .  S
O870        C879   1.262       .  A
O871        V875   1.887       .  S
O871        C878   1.259       .  A
O872        V875   1.915       .  S
O872        C877   1.268   1_565  A
O873        V875   1.914       .  S
O873        C876   1.267       .  A
C876       C1029   1.476       .  S
C877       C1134   1.501       .  S
C878       C1102   1.484       .  S
C879       C1070   1.490   1_565  S
C880       C2190   1.668   1_554  S
C880       C1925   1.688   1_565  S
C880        C896   1.723   1_554  S
C881        C997   1.659       .  S
O882        V890   1.909       .  S
O882        C892   1.266       .  A
O883        V890   1.906       .  S
O883        C893   1.266       .  A
O884        V890   1.906       .  S
O884        C894   1.264       .  A
O885        V890   1.907       .  S
O885        C895   1.264       .  A
O886        V891   1.905       .  S
O886        C895   1.268       .  A
O887        V891   1.899       .  S
O887        C894   1.265       .  A
O888        V891   1.895       .  S
O888        C893   1.262       .  A
O889        V891   1.892       .  S
O889        C892   1.261       .  A
V890        V891   2.086       .  T
C892        C942   1.475       .  S
C893        C974   1.476       .  S
C894       C1006   1.481       .  S
C895        C901   1.498       .  S
C896        C910   1.662       .  S
C897        C898   1.402       .  A
C897        C902   1.412       .  A
C897        H907   1.083       .  S
C898        C903   1.491       .  S
C898        C899   1.419       .  A
C899        C904   1.518       .  S
C899        C900   1.404       .  A
C900        C901   1.405       .  A
C900        H905   1.085       .  S
C901        C902   1.425       .  A
C902        C906   1.517       .  S
C903        C908   1.403       .  A
C903        C912   1.396       .  A
C904        F920   1.377       .  S
C904        F921   1.384   1_455  S
C904        F922   1.383       .  S
C906        F917   1.378       .  S
C906        F918   1.385       .  S
C906        F919   1.383       .  S
C908        C913   1.527       .  S
C908        C909   1.409       .  A
C909        C910   1.438       .  A
C909        H914   1.069       .  S
C910        C911   1.458       .  A
C911        C915   1.537       .  S
C911        C912   1.419       .  A
C912        H916   1.085       .  S
C913        F926   1.384       .  S
C913        F927   1.384       .  S
C913        F928   1.380       .  S
C915        F923   1.381       .  S
C915        F924   1.362   1_565  S
C915        F925   1.369       .  S
C929        C930   1.377       .  A
C929        C934   1.417       .  A
C929        H939   1.085       .  S
C930        C935   1.484       .  S
C930        C931   1.394       .  A
C931        C936   1.524       .  S
C931        C932   1.414       .  A
C932        C933   1.423       .  A
C932        H937   1.028       .  S
C933        C934   1.487       .  A
C934        C938   1.530       .  S
C935        C940   1.415       .  A
C935        C944   1.404       .  A
C936        F952   1.383       .  S
C936        F953   1.380       .  S
C936        F954   1.378   1_455  S
C938        F949   1.378       .  S
C938        F950   1.381       .  S
C938        F951   1.359       .  S
C940        C945   1.521       .  S
C940        C941   1.407       .  A
C941        C942   1.404       .  A
C941        H946   1.084       .  S
C942        C943   1.415       .  A
C943        C947   1.518       .  S
C943        C944   1.407       .  A
C944        H948   1.084       .  S
C945        F958   1.384       .  S
C945        F959   1.382       .  S
C945        F960   1.381       .  S
C947        F955   1.383       .  S
C947        F956   1.385       .  S
C947        F957   1.382       .  S
C961        C962   1.398       .  A
C961        C966   1.402       .  A
C961        H971   1.084       .  S
C962        C967   1.494       .  S
C962        C963   1.421       .  A
C963        C968   1.519       .  S
C963        C964   1.417       .  A
C964        C965   1.427       .  A
C964        H969   1.051       .  S
C965        C966   1.445       .  A
C966        C970   1.538       .  S
C967        C972   1.424       .  A
C967        C976   1.409       .  A
C968        F984   1.382       .  S
C968        F985   1.383       .  S
C968        F986   1.376       .  S
C970        F981   1.389       .  S
C970        F982   1.363   1_556  S
C970        F983   1.376       .  S
C972        C977   1.520       .  S
C972        C973   1.406       .  A
C973        C974   1.401       .  A
C973        H978   1.085       .  S
C974        C975   1.410       .  A
C975        C979   1.514       .  S
C975        C976   1.403       .  A
C976        H980   1.082       .  S
C977        F990   1.383       .  S
C977        F991   1.383       .  S
C977        F992   1.377       .  S
C979        F987   1.385       .  S
C979        F988   1.383       .  S
C979        F989   1.382       .  S
C993        C994   1.388       .  A
C993        C998   1.422       .  A
C993       H1003   1.087       .  S
C994        C999   1.497       .  S
C994        C995   1.401       .  A
C995       C1000   1.524       .  S
C995        C996   1.412       .  A
C996        C997   1.433       .  A
C996       H1001   1.047       .  S
C997        C998   1.477       .  A
C998       C1002   1.519       .  S
C999       C1004   1.423       .  A
C999       C1008   1.404       .  A
C1000      F1016   1.381       .  S
C1000      F1017   1.383       .  S
C1000      F1018   1.373       .  S
C1002      F1013   1.379       .  S
C1002      F1014   1.373   1_455  S
C1002      F1015   1.342       .  S
C1004      C1009   1.514       .  S
C1004      C1005   1.405       .  A
C1005      C1006   1.398       .  A
C1005      H1010   1.084       .  S
C1006      C1007   1.417       .  A
C1007      C1011   1.516       .  S
C1007      C1008   1.412       .  A
C1008      H1012   1.081       .  S
C1009      F1022   1.385       .  S
C1009      F1023   1.375       .  S
C1009      F1024   1.380       .  S
C1011      F1019   1.384       .  S
C1011      F1020   1.380       .  S
C1011      F1021   1.383       .  S
C1025      C1030   1.406       .  A
C1025      H1035   1.084       .  S
C1026      C1031   1.495       .  S
C1026      C1027   1.417       .  A
C1027      C1032   1.517       .  S
C1027      C1028   1.412       .  A
C1028      H1033   1.084       .  S
C1029      C1030   1.412       .  A
C1030      C1034   1.516       .  S
C1031      C1036   1.405       .  A
C1032      F1048   1.379       .  S
C1032      F1049   1.380       .  S
C1032      F1050   1.385       .  S
C1034      F1045   1.382   1_565  S
C1034      F1046   1.385       .  S
C1034      F1047   1.383       .  S
C1036      C1041   1.526       .  S
C1036      C1037   1.419       .  A
C1037      H1042   1.028       .  S
C1038      C2032   1.655   1_556  S
C1038      C1039   1.479       .  A
C1039      C2195   1.534       .  S
C1039      C1040   1.414       .  A
C1040      H1044   1.086       .  S
C1041      F1054   1.379       .  S
C1041      F1055   1.382       .  S
C1041      F1056   1.380       .  S
C1043      C2191   1.532       .  S
C1043      F1051   1.386       .  S
C1043      F1052   1.350   1_556  S
C1043      F1053   1.384       .  S
C1057      C1062   1.411       .  A
C1057      H1067   1.087       .  S
C1058      C1063   1.479       .  S
C1058      C1059   1.393       .  A
C1059      C1064   1.530   1_565  S
C1059      C1060   1.406       .  A
C1060      C1061   1.458       .  A
C1060      H1065   1.057   1_565  S
C1061      C1744   1.691       .  S
C1062      C2218   1.474       .  S
C1063      C1068   1.414       .  A
C1064      F1080   1.383       .  S
C1064      F1081   1.380   1_545  S
C1064      F1082   1.385       .  S
C1066      C2214   1.471       .  S
C1066      F1077   1.383       .  S
C1066      F1078   1.381       .  S
C1066      F1079   1.323       .  S
C1068      C1073   1.521       .  S
C1068      C1069   1.399       .  A
C1069      C1070   1.410   1_565  A
C1069      H1074   1.084       .  S
C1071      C1075   1.520       .  S
C1071      C1072   1.403       .  A
C1072      H1076   1.081       .  S
C1073      F1086   1.384       .  S
C1073      F1087   1.383       .  S
C1073      F1088   1.380       .  S
C1075      F1083   1.383       .  S
C1075      F1084   1.383       .  S
C1075      F1085   1.385       .  S
C1089      C1094   1.414       .  A
C1089      H1099   1.086       .  S
C1090      C1095   1.485       .  S
C1090      C1091   1.397       .  A
C1091      C1096   1.523       .  S
C1091      C1092   1.416       .  A
C1092      H1097   1.046       .  S
C1093      C1094   1.489       .  A
C1094      C1098   1.532   1_556  S
C1095      C1100   1.421       .  A
C1096      F1112   1.382       .  S
C1096      F1113   1.382       .  S
C1096      F1114   1.376       .  S
C1098      F1109   1.374       .  S
C1098      F1110   1.383       .  S
C1100      C1105   1.519       .  S
C1100      C1101   1.404       .  A
C1101      H1106   1.085       .  S
C1102      C1103   1.423       .  A
C1103      C1107   1.521       .  S
C1103      C1104   1.407       .  A
C1104      H1108   1.084       .  S
C1105      F1118   1.383       .  S
C1105      F1119   1.384       .  S
C1105      F1120   1.377       .  S
C1107      F1115   1.382       .  S
C1107      F1116   1.384       .  S
C1107      F1117   1.385       .  S
C1121      C1126   1.413   1_545  A
C1121      H1131   1.087       .  S
C1122      C1127   1.498       .  S
C1122      C1123   1.398       .  A
C1123      C1128   1.519       .  S
C1123      C1124   1.418       .  A
C1124      H1129   1.070       .  S
C1125      C1126   1.486   1_545  A
C1126      C1130   1.533       .  S
C1127      C1132   1.415       .  A
C1128      F1144   1.379       .  S
C1128      F1145   1.382       .  S
C1128      F1146   1.383       .  S
C1130      F1141   1.386       .  S
C1130      F1142   1.386       .  S
C1130      F1143   1.334       .  S
C1132      C1137   1.515       .  S
C1132      C1133   1.410       .  A
C1133      H1138   1.083       .  S
C1134      C1135   1.424   1_545  A
C1135      C1139   1.520       .  S
C1135      C1136   1.413       .  A
C1136      H1140   1.082       .  S
C1137      F1150   1.384       .  S
C1137      F1151   1.379       .  S
C1137      F1152   1.381       .  S
C1139      F1147   1.383       .  S
C1139      F1148   1.384       .  S
C1139      F1149   1.385       .  S
C1153      C1669   1.660   1_554  S
C1153      C1413   1.715       .  S
C1153      C1745   1.770       .  S
C1153      C1472   1.731       .  S
O1154      V1162   1.896       .  S
O1154      C1740   1.261   1_545  A
O1155      V1162   1.893       .  S
O1155      C1741   1.263       .  A
O1156      V1162   1.912       .  S
O1156      C1742   1.270   1_545  A
O1157      V1162   1.910       .  S
O1157      C1743   1.266       .  A
O1158      V1163   1.884       .  S
O1158      C1167   1.262       .  A
O1159      V1163   1.892       .  S
O1159      C1166   1.261       .  A
O1160      V1163   1.918       .  S
O1160      C1165   1.269       .  A
O1161      V1163   1.918       .  S
O1161      C1164   1.268       .  A
V1162      V1739   2.083   1_545  T
V1163      V1738   2.083       .  T
C1164      O1730   1.262       .  A
C1164      C1317   1.481       .  S
C1165      O1731   1.264       .  A
C1165      C1422   1.499       .  S
C1166      O1732   1.268       .  A
C1166      C1390   1.487       .  S
C1167      O1733   1.265       .  A
C1167      C1358   1.488       .  S
C1168      C2033   1.742       .  S
C1168      C1184   1.725       .  S
C1169      C1541   1.650   1_554  S
C1169      C1285   1.657       .  S
C1169      C1729   1.769   1_545  S
C1169      C2032   1.742   1_545  S
O1170      V1178   1.906       .  S
O1170      C1180   1.265       .  A
O1171      V1178   1.900       .  S
O1171      C1181   1.264       .  A
O1172      V1178   1.911       .  S
O1172      C1182   1.265       .  A
O1173      V1178   1.912       .  S
O1173      C1183   1.266       .  A
O1174      V1179   1.904       .  S
O1174      C1183   1.268       .  A
O1175      V1179   1.898       .  S
O1175      C1182   1.265       .  A
O1176      V1179   1.895       .  S
O1176      C1181   1.262       .  A
O1177      V1179   1.893       .  S
O1177      C1180   1.261       .  A
V1178      V1179   2.086       .  T
C1180      C1230   1.471       .  S
C1181      C1262   1.472       .  S
C1182      C1294   1.483       .  S
C1183      C1189   1.502       .  S
C1184      C1198   1.668       .  S
C1184      C1509   1.640       .  S
C1184      C1441   1.730       .  S
C1185      C1186   1.404       .  A
C1185      C1190   1.415       .  A
C1185      H1195   1.083       .  S
C1186      C1191   1.496       .  S
C1186      C1187   1.421       .  A
C1187      C1192   1.519       .  S
C1187      C1188   1.405       .  A
C1188      C1189   1.405       .  A
C1188      H1193   1.085       .  S
C1189      C1190   1.426       .  A
C1190      C1194   1.517       .  S
C1191      C1196   1.404       .  A
C1191      C1200   1.399       .  A
C1192      F1208   1.376       .  S
C1192      F1209   1.384       .  S
C1192      F1210   1.383       .  S
C1194      F1205   1.379       .  S
C1194      F1206   1.385       .  S
C1194      F1207   1.383       .  S
C1196      C1201   1.527       .  S
C1196      C1197   1.409       .  A
C1197      C1198   1.438       .  A
C1197      H1202   1.068       .  S
C1198      C1199   1.459       .  A
C1199      C1203   1.538       .  S
C1199      C1200   1.422       .  A
C1200      H1204   1.085       .  S
C1201      F1214   1.384       .  S
C1201      F1215   1.383       .  S
C1201      F1216   1.379       .  S
C1203      F1211   1.380       .  S
C1203      F1212   1.364       .  S
C1203      F1213   1.373       .  S
C1217      C1218   1.382       .  A
C1217      C1222   1.419       .  A
C1217      H1227   1.084       .  S
C1218      C1223   1.487       .  S
C1218      C1219   1.396       .  A
C1219      C1224   1.525       .  S
C1219      C1220   1.412       .  A
C1220      C1221   1.420       .  A
C1220      H1225   1.025       .  S
C1221      C1472   1.634       .  S
C1221      C1222   1.483       .  A
C1222      C1226   1.529   1_554  S
C1223      C1228   1.418       .  A
C1223      C1232   1.405       .  A
C1224      F1240   1.382       .  S
C1224      F1241   1.382       .  S
C1224      F1242   1.381       .  S
C1226      F1237   1.378       .  S
C1226      F1238   1.381   1_556  S
C1226      F1239   1.360       .  S
C1228      C1233   1.520       .  S
C1228      C1229   1.407       .  A
C1229      C1230   1.402       .  A
C1229      H1234   1.084       .  S
C1230      C1231   1.413       .  A
C1231      C1235   1.518       .  S
C1231      C1232   1.407       .  A
C1232      H1236   1.084       .  S
C1233      F1246   1.385       .  S
C1233      F1247   1.381       .  S
C1233      F1248   1.381       .  S
C1235      F1243   1.383       .  S
C1235      F1244   1.383       .  S
C1235      F1245   1.385       .  S
C1249      C1250   1.399       .  A
C1249      C1254   1.400       .  A
C1249      H1259   1.084       .  S
C1250      C1255   1.488       .  S
C1250      C1251   1.421       .  A
C1251      C1256   1.517       .  S
C1251      C1252   1.415       .  A
C1252      C1253   1.424       .  A
C1252      H1257   1.051       .  S
C1253      C1457   1.639       .  S
C1253      C1254   1.442       .  A
C1254      C1258   1.540       .  S
C1255      C1260   1.422       .  A
C1255      C1264   1.408       .  A
C1256      F1272   1.382       .  S
C1256      F1273   1.383       .  S
C1256      F1274   1.375       .  S
C1258      F1269   1.388       .  S
C1258      F1270   1.365       .  S
C1258      F1271   1.377       .  S
C1260      C1265   1.521       .  S
C1260      C1261   1.405       .  A
C1261      C1262   1.403       .  A
C1261      H1266   1.085       .  S
C1262      C1263   1.409       .  A
C1263      C1267   1.515       .  S
C1263      C1264   1.400       .  A
C1264      H1268   1.081       .  S
C1265      F1278   1.384       .  S
C1265      F1279   1.383       .  S
C1265      F1280   1.378       .  S
C1267      F1275   1.385       .  S
C1267      F1276   1.383       .  S
C1267      F1277   1.382       .  S
C1281      C1282   1.387       .  A
C1281      C1286   1.421       .  A
C1281      H1291   1.086       .  S
C1282      C1287   1.498       .  S
C1282      C1283   1.403       .  A
C1283      C1288   1.523       .  S
C1283      C1284   1.413       .  A
C1284      C1285   1.431       .  A
C1284      H1289   1.048       .  S
C1285      C1286   1.478       .  A
C1286      C1290   1.522       .  S
C1287      C1292   1.423       .  A
C1287      C1296   1.403       .  A
C1288      F1304   1.380       .  S
C1288      F1305   1.383       .  S
C1288      F1306   1.374       .  S
C1290      F1301   1.378       .  S
C1290      F1302   1.374       .  S
C1290      F1303   1.342       .  S
C1292      C1297   1.513       .  S
C1292      C1293   1.405       .  A
C1293      C1294   1.398       .  A
C1293      H1298   1.084       .  S
C1294      C1295   1.418       .  A
C1295      C1299   1.515       .  S
C1295      C1296   1.411       .  A
C1296      H1300   1.079       .  S
C1297      F1310   1.385       .  S
C1297      F1311   1.376       .  S
C1297      F1312   1.379       .  S
C1299      F1307   1.384       .  S
C1299      F1308   1.378       .  S
C1299      F1309   1.382       .  S
C1313      C1890   1.407       .  A
C1313      C1318   1.408       .  A
C1313      H1323   1.085       .  S
C1314      C1319   1.499       .  S
C1314      C1889   1.408       .  A
C1314      C1315   1.421   1_565  A
C1315      C1320   1.516       .  S
C1315      C1316   1.409       .  A
C1316      C1893   1.404   1_545  A
C1316      H1321   1.085       .  S
C1317      C1892   1.405       .  A
C1317      C1318   1.417       .  A
C1318      C1322   1.519       .  S
C1319      C1324   1.403   1_565  A
C1319      C1904   1.388       .  A
C1320      F1336   1.383   1_545  S
C1320      F1337   1.377   1_655  S
C1320      F1338   1.384       .  S
C1322      F1333   1.383       .  S
C1322      F1334   1.384       .  S
C1322      F1335   1.381       .  S
C1324      C1329   1.524       .  S
C1324      C1325   1.420   1_655  A
C1325      C1902   1.427   1_545  A
C1325      H1330   1.032       .  S
C1326      C1901   1.428       .  A
C1326      C1327   1.480   1_455  A
C1327      C1328   1.414       .  A
C1328      C1895   1.385       .  A
C1328      H1332   1.086       .  S
C1329      F1342   1.378       .  S
C1329      F1343   1.383       .  S
C1329      F1344   1.380       .  S
C1331      F1339   1.385       .  S
C1331      F1340   1.354       .  S
C1331      F1341   1.384       .  S
C1345      C1922   1.380   1_565  A
C1345      C1350   1.407   1_655  A
C1345      H1355   1.087       .  S
C1346      C1351   1.477       .  S
C1346      C1921   1.380       .  A
C1346      C1347   1.393       .  A
C1347      C1352   1.527       .  S
C1347      C1348   1.407       .  A
C1348      C1349   1.456   1_655  A
C1348      H1353   1.060       .  S
C1349      C1926   1.470       .  A
C1350      C1925   1.470   1_565  A
C1351      C1356   1.413       .  A
C1351      C1936   1.402       .  A
C1352      F1368   1.383       .  S
C1352      F1369   1.381       .  S
C1352      F1370   1.385       .  S
C1354      F1365   1.382       .  S
C1354      F1366   1.380   1_565  S
C1354      F1367   1.325       .  S
C1356      C1361   1.521       .  S
C1356      C1357   1.400       .  A
C1357      C1358   1.410       .  A
C1357      H1362   1.084       .  S
C1358      C1935   1.422       .  A
C1359      C1363   1.519       .  S
C1359      C1934   1.420       .  A
C1359      C1360   1.407       .  A
C1360      C1927   1.405       .  A
C1360      H1364   1.083       .  S
C1361      F1374   1.384       .  S
C1361      F1375   1.383       .  S
C1361      F1376   1.380       .  S
C1363      F1371   1.384       .  S
C1363      F1372   1.383       .  S
C1363      F1373   1.385       .  S
C1377      C1954   1.377       .  A
C1377      C1382   1.414       .  A
C1377      H1387   1.086       .  S
C1378      C1383   1.493       .  S
C1378      C1953   1.378       .  A
C1378      C1379   1.395   1_565  A
C1379      C1384   1.523       .  S
C1379      C1380   1.419       .  A
C1380      C1957   1.421   1_545  A
C1380      H1385   1.041       .  S
C1381      C1441   1.657       .  S
C1381      C1956   1.419       .  A
C1381      C1382   1.486       .  A
C1382      C1386   1.529       .  S
C1383      C1388   1.420   1_565  A
C1383      C1968   1.402       .  A
C1384      F1400   1.383   1_545  S
C1384      F1401   1.382       .  S
C1384      F1402   1.376       .  S
C1386      F1397   1.377       .  S
C1386      F1398   1.384       .  S
C1386      F1687   1.359       .  S
C1388      C1393   1.515       .  S
C1388      C1389   1.403       .  A
C1389      C1966   1.402   1_545  A
C1389      H1394   1.085       .  S
C1390      C1965   1.403       .  A
C1390      C1391   1.423       .  A
C1391      C1395   1.520       .  S
C1391      C1392   1.408       .  A
C1392      C1959   1.402       .  A
C1392      H1396   1.083       .  S
C1393      F1406   1.383       .  S
C1393      F1407   1.384       .  S
C1393      F1408   1.376       .  S
C1395      F1403   1.383       .  S
C1395      F1404   1.384       .  S
C1395      F1405   1.385       .  S
F1399      C1674   1.359       .  S
C1409      C1986   1.378       .  A
C1409      C1414   1.416       .  A
C1409      H1419   1.087       .  S
C1410      C1415   1.497       .  S
C1410      C1985   1.380       .  A
C1410      C1411   1.395       .  A
C1411      C1416   1.520       .  S
C1411      C1412   1.416       .  A
C1412      C1989   1.460       .  A
C1412      H1417   1.067       .  S
C1413      C1988   1.459       .  A
C1413      C1414   1.494       .  A
C1414      C1418   1.534       .  S
C1415      C1420   1.415       .  A
C1415      C2000   1.405       .  A
C1416      F1432   1.381       .  S
C1416      F1433   1.383       .  S
C1416      F1434   1.384       .  S
C1418      F1429   1.386       .  S
C1418      F1430   1.387       .  S
C1418      F1431   1.329       .  S
C1420      C1425   1.514       .  S
C1420      C1421   1.408       .  A
C1421      C1998   1.408       .  A
C1421      H1426   1.083       .  S
C1422      C1997   1.407       .  A
C1422      C1423   1.421       .  A
C1423      C1427   1.518       .  S
C1423      C1424   1.414       .  A
C1424      C1991   1.407       .  A
C1424      H1428   1.081       .  S
C1425      F1438   1.384       .  S
C1425      F1439   1.377       .  S
C1425      F1440   1.380       .  S
C1427      F1435   1.383       .  S
C1427      F1436   1.384       .  S
C1427      F1437   1.385       .  S
C1441      C1701   1.710       .  S
C1441      C2033   1.769       .  S
O1442      V1450   1.898       .  S
O1442      C2028   1.262   1_545  A
O1443      V1450   1.898       .  S
O1443      C2029   1.264       .  A
O1444      V1450   1.906       .  S
O1444      C2030   1.268       .  A
O1445      V1450   1.902       .  S
O1445      C2031   1.265       .  A
O1446      V1451   1.880       .  S
O1446      C1455   1.261       .  A
O1447      V1451   1.891       .  S
O1447      C1454   1.260       .  A
O1448      V1451   1.919       .  S
O1448      C1453   1.269       .  A
O1449      V1451   1.919       .  S
O1449      C1452   1.269       .  A
V1450      V2027   2.084   1_545  T
V1451      V2026   2.082       .  T
C1452      O2018   1.262       .  A
C1452      C1605   1.484       .  S
C1453      O2019   1.264       .  A
C1453      C1710   1.501       .  S
C1454      O2020   1.270       .  A
C1454      C1678   1.492       .  S
C1455      O2021   1.266       .  A
C1455      C1646   1.488       .  S
C1456      C1745   1.742       .  S
C1456      C1472   1.723       .  S
C1457      C1573   1.654       .  S
C1457      C2017   1.767   1_545  S
C1457      C1744   1.743   1_545  S
O1458      V1466   1.910       .  S
O1458      C1468   1.267       .  A
O1459      V1466   1.906       .  S
O1459      C1469   1.266       .  A
O1460      V1466   1.905       .  S
O1460      C1470   1.263       .  A
O1461      V1466   1.906       .  S
O1461      C1471   1.264       .  A
O1462      V1467   1.907       .  S
O1462      C1471   1.269       .  A
O1463      V1467   1.899       .  S
O1463      C1470   1.265       .  A
O1464      V1467   1.897       .  S
O1464      C1469   1.262       .  A
O1465      V1467   1.898       .  S
O1465      C1468   1.262       .  A
V1466      V1467   2.086       .  T
C1468      C1518   1.479       .  S
C1469      C1550   1.478       .  S
C1470      C1582   1.477       .  S
C1471      C1477   1.502       .  S
C1472      C1486   1.667   1_554  S
C1473      C1474   1.403       .  A
C1473      C1478   1.413       .  A
C1473      H1483   1.083       .  S
C1474      C1479   1.497       .  S
C1474      C1475   1.423       .  A
C1475      C1480   1.519       .  S
C1475      C1476   1.405       .  A
C1476      C1477   1.405       .  A
C1476      H1481   1.085       .  S
C1477      C1478   1.427       .  A
C1478      C1482   1.518       .  S
C1479      C1484   1.404       .  A
C1479      C1488   1.399       .  A
C1480      F1496   1.376       .  S
C1480      F1497   1.384       .  S
C1480      F1498   1.383       .  S
C1482      F1493   1.378       .  S
C1482      F1494   1.385       .  S
C1482      F1495   1.383       .  S
C1484      C1489   1.527       .  S
C1484      C1485   1.409       .  A
C1485      C1486   1.440       .  A
C1485      H1490   1.068       .  S
C1486      C1487   1.458       .  A
C1487      C1491   1.536       .  S
C1487      C1488   1.422       .  A
C1488      H1492   1.085       .  S
C1489      F1502   1.384       .  S
C1489      F1503   1.383       .  S
C1489      F1504   1.378       .  S
C1491      F1499   1.379       .  S
C1491      F1500   1.363       .  S
C1491      F1501   1.371       .  S
C1505      C1506   1.381       .  A
C1505      C1510   1.421       .  A
C1505      H1515   1.085       .  S
C1506      C1511   1.490       .  S
C1506      C1507   1.395       .  A
C1507      C1512   1.525       .  S
C1507      C1508   1.414       .  A
C1508      C1509   1.421       .  A
C1508      H1513   1.025       .  S
C1509      C1510   1.485       .  A
C1510      C1514   1.529       .  S
C1511      C1516   1.418       .  A
C1511      C1520   1.404       .  A
C1512      F1528   1.382       .  S
C1512      F1529   1.381       .  S
C1512      F1530   1.377       .  S
C1514      F1525   1.378       .  S
C1514      F1526   1.381       .  S
C1514      F1527   1.361       .  S
C1516      C1521   1.521       .  S
C1516      C1517   1.412       .  A
C1517      C1518   1.405       .  A
C1517      H1522   1.083       .  S
C1518      C1519   1.413       .  A
C1519      C1523   1.518       .  S
C1519      C1520   1.407       .  A
C1520      H1524   1.084       .  S
C1521      F1534   1.384       .  S
C1521      F1535   1.382       .  S
C1521      F1536   1.382       .  S
C1523      F1531   1.382       .  S
C1523      F1532   1.384       .  S
C1523      F1533   1.384       .  S
C1537      C1538   1.400       .  A
C1537      C1542   1.401       .  A
C1537      H1547   1.084       .  S
C1538      C1543   1.495       .  S
C1538      C1539   1.423       .  A
C1539      C1544   1.520       .  S
C1539      C1540   1.419       .  A
C1540      C1541   1.428       .  A
C1540      H1545   1.049       .  S
C1541      C1542   1.443       .  A
C1542      C1546   1.538       .  S
C1543      C1548   1.424       .  A
C1543      C1552   1.409       .  A
C1544      F1560   1.382       .  S
C1544      F1561   1.383       .  S
C1544      F1562   1.378       .  S
C1546      F1557   1.389       .  S
C1546      F1558   1.363   1_556  S
C1546      F1559   1.376       .  S
C1548      C1553   1.519       .  S
C1548      C1549   1.406       .  A
C1549      C1550   1.401       .  A
C1549      H1554   1.084       .  S
C1550      C1551   1.411       .  A
C1551      C1555   1.514       .  S
C1551      C1552   1.404       .  A
C1552      H1556   1.080       .  S
C1553      F1566   1.384       .  S
C1553      F1567   1.383       .  S
C1553      F1568   1.376       .  S
C1555      F1563   1.385       .  S
C1555      F1564   1.384       .  S
C1555      F1565   1.382       .  S
C1569      C1570   1.386       .  A
C1569      C1574   1.418       .  A
C1569      H1579   1.087       .  S
C1570      C1575   1.491       .  S
C1570      C1571   1.401       .  A
C1571      C1576   1.525       .  S
C1571      C1572   1.411       .  A
C1572      C1573   1.434       .  A
C1572      H1577   1.049       .  S
C1573      C1574   1.475       .  A
C1574      C1578   1.521       .  S
C1575      C1580   1.422       .  A
C1575      C1584   1.403       .  A
C1576      F1592   1.381       .  S
C1576      F1593   1.383       .  S
C1576      F1594   1.372       .  S
C1578      F1589   1.379       .  S
C1578      F1590   1.374       .  S
C1578      F1591   1.344       .  S
C1580      C1585   1.515       .  S
C1580      C1581   1.403       .  A
C1581      C1582   1.397       .  A
C1581      H1586   1.084       .  S
C1582      C1583   1.417       .  A
C1583      C1587   1.515       .  S
C1583      C1584   1.410       .  A
C1584      H1588   1.081       .  S
C1585      F1598   1.385       .  S
C1585      F1599   1.375       .  S
C1585      F1600   1.380       .  S
C1587      F1595   1.385       .  S
C1587      F1596   1.379       .  S
C1587      F1597   1.382       .  S
C1601      C2178   1.410       .  A
C1601      C1606   1.410       .  A
C1601      H1611   1.083       .  S
C1602      C1607   1.501       .  S
C1602      C2177   1.408       .  A
C1602      C1603   1.419       .  A
C1603      C1608   1.516       .  S
C1603      C1604   1.412       .  A
C1604      C2181   1.402       .  A
C1604      H1609   1.083       .  S
C1605      C2180   1.404       .  A
C1605      C1606   1.411       .  A
C1606      C1610   1.516       .  S
C1607      C1612   1.404   1_565  A
C1607      C2192   1.386       .  A
C1608      F1624   1.378       .  S
C1608      F1625   1.381   1_665  S
C1608      F1626   1.385       .  S
C1610      F1621   1.383       .  S
C1610      F1622   1.384       .  S
C1610      F1623   1.383       .  S
C1612      C1617   1.524       .  S
C1612      C1613   1.420   1_655  A
C1613      C2190   1.426   1_545  A
C1613      H1618   1.023       .  S
C1614      C2189   1.426       .  A
C1614      C1615   1.482   1_455  A
C1615      C1616   1.417       .  A
C1616      C2183   1.387       .  A
C1616      H1620   1.086       .  S
C1617      F1630   1.380       .  S
C1617      F1631   1.383       .  S
C1617      F1632   1.380       .  S
C1619      F1627   1.386       .  S
C1619      F1628   1.354   1_556  S
C1619      F1629   1.384       .  S
C1633      C2210   1.381       .  A
C1633      C1638   1.410   1_655  A
C1633      H1643   1.087       .  S
C1634      C1639   1.477       .  S
C1634      C2209   1.382       .  A
C1634      C1635   1.394       .  A
C1635      C1640   1.529       .  S
C1635      C1636   1.405       .  A
C1636      C1637   1.457   1_655  A
C1636      H1641   1.057       .  S
C1637      C2214   1.468       .  A
C1638      C2213   1.470       .  A
C1639      C1644   1.412       .  A
C1639      C2224   1.404       .  A
C1640      F1656   1.383       .  S
C1640      F1657   1.380       .  S
C1640      F1658   1.385       .  S
C1642      F1653   1.381       .  S
C1642      F1654   1.379   1_565  S
C1642      F1655   1.324       .  S
C1644      C1649   1.520       .  S
C1644      C1645   1.399       .  A
C1645      C1646   1.410       .  A
C1645      H1650   1.084       .  S
C1646      C2223   1.421       .  A
C1647      C1651   1.520       .  S
C1647      C2222   1.422       .  A
C1647      C1648   1.405       .  A
C1648      C2215   1.402   1_545  A
C1648      H1652   1.082       .  S
C1649      F1662   1.384       .  S
C1649      F1663   1.383       .  S
C1649      F1664   1.380       .  S
C1651      F1659   1.384       .  S
C1651      F1660   1.383       .  S
C1651      F1661   1.385       .  S
C1665      C2242   1.380       .  A
C1665      C1670   1.417       .  A
C1665      H1675   1.086       .  S
C1666      C1671   1.484       .  S
C1666      C2241   1.376       .  A
C1666      C1667   1.393   1_565  A
C1667      C1672   1.524       .  S
C1667      C1668   1.416       .  A
C1668      C2245   1.419   1_545  A
C1668      H1673   1.043       .  S
C1669      C2244   1.419       .  A
C1669      C1670   1.486       .  A
C1670      C1674   1.529   1_556  S
C1671      C1676   1.420   1_565  A
C1671      C2256   1.400       .  A
C1672      F1688   1.382       .  S
C1672      F1689   1.382       .  S
C1672      F1690   1.374       .  S
C1674      F1685   1.377       .  S
C1674      F1686   1.384       .  S
C1676      C1681   1.517       .  S
C1676      C1677   1.402       .  A
C1677      C2254   1.401   1_545  A
C1677      H1682   1.085       .  S
C1678      C2253   1.403       .  A
C1678      C1679   1.425       .  A
C1679      C1683   1.522       .  S
C1679      C1680   1.411       .  A
C1680      C2247   1.403       .  A
C1680      H1684   1.083       .  S
C1681      F1694   1.384       .  S
C1681      F1695   1.376       .  S
C1681      F1696   1.383       .  S
C1683      F1691   1.383       .  S
C1683      F1692   1.384       .  S
C1683      F1693   1.385       .  S
C1697      C2274   1.380       .  A
C1697      C1702   1.414       .  A
C1697      H1707   1.087       .  S
C1698      C1703   1.499       .  S
C1698      C2273   1.382       .  A
C1698      C1699   1.399       .  A
C1699      C1704   1.520       .  S
C1699      C1700   1.417       .  A
C1700      C2277   1.459       .  A
C1700      H1705   1.069       .  S
C1701      C2276   1.460       .  A
C1701      C1702   1.489       .  A
C1702      C1706   1.534       .  S
C1703      C1708   1.415       .  A
C1703      C2288   1.404       .  A
C1704      F1720   1.381       .  S
C1704      F1721   1.382       .  S
C1704      F1722   1.384       .  S
C1706      F1717   1.385       .  S
C1706      F1718   1.386       .  S
C1706      F1719   1.333       .  S
C1708      C1713   1.515       .  S
C1708      C1709   1.411       .  A
C1709      C2286   1.410       .  A
C1709      H1714   1.083       .  S
C1710      C2285   1.410       .  A
C1710      C1711   1.423       .  A
C1711      C1715   1.519       .  S
C1711      C1712   1.413       .  A
C1712      C2279   1.406       .  A
C1712      H1716   1.081       .  S
C1713      F1726   1.384       .  S
C1713      F1727   1.378       .  S
C1713      F1728   1.381       .  S
C1715      F1723   1.383       .  S
C1715      F1724   1.383       .  S
C1715      F1725   1.385       .  S
C1729      C2245   1.653   1_554  S
C1729      C1989   1.707   1_565  S
C1729      C2048   1.726   1_554  S
O1730      V1738   1.898       .  S
O1731      V1738   1.899       .  S
O1732      V1738   1.906       .  S
O1733      V1738   1.903       .  S
O1734      V1739   1.876       .  S
O1734      C1743   1.260   1_565  A
O1735      V1739   1.887       .  S
O1735      C1742   1.258       .  A
O1736      V1739   1.915       .  S
O1736      C1741   1.268   1_565  A
O1737      V1739   1.917       .  S
O1737      C1740   1.268       .  A
C1740      C1893   1.479       .  S
C1741      C1998   1.492       .  S
C1742      C1966   1.491       .  S
C1743      C1934   1.487       .  S
C1744      C1760   1.726       .  S
C1745      C2117   1.646   1_554  S
C1745      C1861   1.658       .  S
O1746      V1754   1.902       .  S
O1746      C1756   1.264       .  A
O1747      V1754   1.900       .  S
O1747      C1757   1.264       .  A
O1748      V1754   1.908       .  S
O1748      C1758   1.265       .  A
O1749      V1754   1.908       .  S
O1749      C1759   1.264       .  A
O1750      V1755   1.894       .  S
O1750      C1759   1.266       .  A
O1751      V1755   1.893       .  S
O1751      C1758   1.264       .  A
O1752      V1755   1.893       .  S
O1752      C1757   1.262       .  A
O1753      V1755   1.892       .  S
O1753      C1756   1.261       .  A
V1754      V1755   2.086       .  T
C1756      C1806   1.467       .  S
C1757      C1838   1.470       .  S
C1758      C1870   1.480       .  S
C1759      C1765   1.495       .  S
C1760      C1774   1.661       .  S
C1760      C2085   1.639       .  S
C1760      C2017   1.727       .  S
C1761      C1762   1.404       .  A
C1761      C1766   1.412       .  A
C1761      H1771   1.083       .  S
C1762      C1767   1.488       .  S
C1762      C1763   1.420       .  A
C1763      C1768   1.521       .  S
C1763      C1764   1.400       .  A
C1764      C1765   1.405       .  A
C1764      H1769   1.085       .  S
C1765      C1766   1.424       .  A
C1766      C1770   1.518       .  S
C1767      C1772   1.405       .  A
C1767      C1776   1.396       .  A
C1768      F1784   1.376       .  S
C1768      F1785   1.384       .  S
C1768      F1786   1.383       .  S
C1770      F1781   1.380       .  S
C1770      F1782   1.385       .  S
C1770      F1783   1.383       .  S
C1772      C1777   1.528       .  S
C1772      C1773   1.408       .  A
C1773      C1774   1.437       .  A
C1773      H1778   1.069       .  S
C1774      C1775   1.455       .  A
C1775      C1779   1.536       .  S
C1775      C1776   1.416       .  A
C1776      H1780   1.085       .  S
C1777      F1790   1.385       .  S
C1777      F1791   1.384       .  S
C1777      F1792   1.378       .  S
C1779      F1787   1.382       .  S
C1779      F1788   1.364   1_565  S
C1779      F1789   1.372       .  S
C1793      C1794   1.378       .  A
C1793      C1798   1.417       .  A
C1793      H1803   1.085       .  S
C1794      C1799   1.482       .  S
C1794      C1795   1.394       .  A
C1795      C1800   1.524       .  S
C1795      C1796   1.411       .  A
C1796      C1797   1.419       .  A
C1796      H1801   1.025       .  S
C1797      C2048   1.636   1_554  S
C1797      C1798   1.485       .  A
C1798      C1802   1.528   1_554  S
C1799      C1804   1.416       .  A
C1799      C1808   1.404       .  A
C1800      F1816   1.382       .  S
C1800      F1817   1.381       .  S
C1800      F1818   1.379       .  S
C1802      F1813   1.377       .  S
C1802      F1814   1.381   1_556  S
C1802      F1815   1.359       .  S
C1804      C1809   1.520       .  S
C1804      C1805   1.406       .  A
C1805      C1806   1.402       .  A
C1805      H1810   1.084       .  S
C1806      C1807   1.412       .  A
C1807      C1811   1.518       .  S
C1807      C1808   1.404       .  A
C1808      H1812   1.084       .  S
C1809      F1822   1.385       .  S
C1809      F1823   1.382       .  S
C1809      F1824   1.381       .  S
C1811      F1819   1.383       .  S
C1811      F1820   1.383       .  S
C1811      F1821   1.385       .  S
C1825      C1826   1.398       .  A
C1825      C1830   1.399       .  A
C1825      H1835   1.084       .  S
C1826      C1831   1.490       .  S
C1826      C1827   1.421       .  A
C1827      C1832   1.519       .  S
C1827      C1828   1.417       .  A
C1828      C1829   1.428       .  A
C1828      H1833   1.051       .  S
C1829      C2033   1.648       .  S
C1829      C1830   1.445       .  A
C1830      C1834   1.540       .  S
C1831      C1836   1.422       .  A
C1831      C1840   1.410       .  A
C1832      F1848   1.382       .  S
C1832      F1849   1.383       .  S
C1832      F1850   1.377       .  S
C1834      F1845   1.389       .  S
C1834      F1846   1.362       .  S
C1834      F1847   1.376       .  S
C1836      C1841   1.520       .  S
C1836      C1837   1.403       .  A
C1837      C1838   1.400       .  A
C1837      H1842   1.085       .  S
C1838      C1839   1.410       .  A
C1839      C1843   1.517       .  S
C1839      C1840   1.404       .  A
C1840      H1844   1.081       .  S
C1841      F1854   1.384       .  S
C1841      F1855   1.383       .  S
C1841      F1856   1.377       .  S
C1843      F1851   1.385       .  S
C1843      F1852   1.384       .  S
C1843      F1853   1.382       .  S
C1857      C1858   1.383       .  A
C1857      C1862   1.418       .  A
C1857      H1867   1.086       .  S
C1858      C1863   1.499       .  S
C1858      C1859   1.401       .  A
C1859      C1864   1.522       .  S
C1859      C1860   1.416       .  A
C1860      C1861   1.433       .  A
C1860      H1865   1.046       .  S
C1861      C1862   1.477       .  A
C1862      C1866   1.518       .  S
C1863      C1868   1.423       .  A
C1863      C1872   1.403       .  A
C1864      F1880   1.376       .  S
C1864      F1881   1.382       .  S
C1864      F1882   1.382       .  S
C1866      F1877   1.381       .  S
C1866      F1878   1.374       .  S
C1866      F1879   1.343       .  S
C1868      C1873   1.516       .  S
C1868      C1869   1.405       .  A
C1869      C1870   1.399       .  A
C1869      H1874   1.084       .  S
C1870      C1871   1.416       .  A
C1871      C1875   1.516       .  S
C1871      C1872   1.410       .  A
C1872      H1876   1.079       .  S
C1873      F1886   1.385       .  S
C1873      F1887   1.379       .  S
C1873      F1888   1.378       .  S
C1875      F1883   1.384       .  S
C1875      F1884   1.381       .  S
C1875      F1885   1.382       .  S
C1889      C1894   1.408       .  A
C1889      H1899   1.085       .  S
C1890      C1895   1.497       .  S
C1890      C1891   1.418       .  A
C1891      C1896   1.518       .  S
C1891      C1892   1.411       .  A
C1892      H1897   1.085       .  S
C1893      C1894   1.417       .  A
C1894      C1898   1.519       .  S
C1895      C1900   1.402       .  A
C1896      F1912   1.382       .  S
C1896      F1913   1.380   1_655  S
C1896      F1914   1.384       .  S
C1898      F1909   1.383   1_565  S
C1898      F1910   1.383       .  S
C1898      F1911   1.380       .  S
C1900      C1905   1.523       .  S
C1900      C1901   1.419   1_655  A
C1901      H1906   1.031       .  S
C1902      C1903   1.479   1_455  A
C1903      C1904   1.415       .  A
C1904      H1908   1.086       .  S
C1905      F1918   1.377       .  S
C1905      F1919   1.383       .  S
C1905      F1920   1.381       .  S
C1907      F1915   1.386       .  S
C1907      F1916   1.353       .  S
C1907      F1917   1.384       .  S
C1921      C1926   1.408   1_655  A
C1921      H1931   1.087       .  S
C1922      C1927   1.476       .  S
C1922      C1923   1.393       .  A
C1923      C1928   1.528       .  S
C1923      C1924   1.407       .  A
C1924      C1925   1.457   1_655  A
C1924      H1929   1.058   1_554  S
C1927      C1932   1.413   1_545  A
C1928      F1944   1.383       .  S
C1928      F1945   1.380   1_545  S
C1928      F1946   1.385   1_554  S
C1930      F1941   1.381       .  S
C1930      F1942   1.380       .  S
C1930      F1943   1.324       .  S
C1932      C1937   1.521       .  S
C1932      C1933   1.397       .  A
C1933      C1934   1.409   1_565  A
C1933      H1938   1.084       .  S
C1935      C1939   1.520       .  S
C1935      C1936   1.405       .  A
C1936      H1940   1.082       .  S
C1937      F1950   1.384       .  S
C1937      F1951   1.383       .  S
C1937      F1952   1.380       .  S
C1939      F1947   1.384       .  S
C1939      F1948   1.383       .  S
C1939      F1949   1.385       .  S
C1953      C1958   1.415       .  A
C1953      H1963   1.086       .  S
C1954      C1959   1.490       .  S
C1954      C1955   1.394       .  A
C1955      C1960   1.523       .  S
C1955      C1956   1.418       .  A
C1956      H1961   1.040       .  S
C1957      C2017   1.664       .  S
C1957      C1958   1.488       .  A
C1958      C1962   1.529       .  S
C1959      C1964   1.420       .  A
C1960      F1976   1.382       .  S
C1960      F1977   1.382       .  S
C1960      F1978   1.376       .  S
C1962      F1973   1.377       .  S
C1962      F1974   1.384       .  S
C1962      F2263   1.357       .  S
C1964      C1969   1.517       .  S
C1964      C1965   1.403       .  A
C1965      H1970   1.085       .  S
C1966      C1967   1.427       .  A
C1967      C1971   1.522       .  S
C1967      C1968   1.410       .  A
C1968      H1972   1.083       .  S
C1969      F1982   1.384       .  S
C1969      F1983   1.376       .  S
C1969      F1984   1.384       .  S
C1971      F1979   1.383       .  S
C1971      F1980   1.384       .  S
C1971      F1981   1.385       .  S
F1975      C2250   1.359       .  S
C1985      C1990   1.414   1_545  A
C1985      H1995   1.087       .  S
C1986      C1991   1.508       .  S
C1986      C1987   1.398       .  A
C1987      C1992   1.518       .  S
C1987      C1988   1.422       .  A
C1988      H1993   1.068       .  S
C1989      C1990   1.490   1_545  A
C1990      C1994   1.534       .  S
C1991      C1996   1.417       .  A
C1992      F2008   1.381       .  S
C1992      F2009   1.383       .  S
C1992      F2010   1.383       .  S
C1994      F2005   1.385       .  S
C1994      F2006   1.387       .  S
C1994      F2007   1.333       .  S
C1996      C2001   1.510       .  S
C1996      C1997   1.410       .  A
C1997      H2002   1.083       .  S
C1998      C1999   1.420   1_545  A
C1999      C2003   1.519       .  S
C1999      C2000   1.410   1_565  A
C2000      H2004   1.081   1_545  S
C2001      F2014   1.385       .  S
C2001      F2015   1.377       .  S
C2001      F2016   1.380       .  S
C2003      F2011   1.382       .  S
C2003      F2012   1.384       .  S
C2003      F2013   1.385       .  S
C2017      C2277   1.706   1_565  S
O2018      V2026   1.898       .  S
O2019      V2026   1.897       .  S
O2020      V2026   1.915       .  S
O2021      V2026   1.908       .  S
O2022      V2027   1.879       .  S
O2022      C2031   1.261   1_565  A
O2023      V2027   1.884       .  S
O2023      C2030   1.259   1_565  A
O2024      V2027   1.916       .  S
O2024      C2029   1.268   1_565  A
O2025      V2027   1.916       .  S
O2025      C2028   1.268       .  A
C2028      C2181   1.481       .  S
C2029      C2286   1.499       .  S
C2030      C2254   1.479   1_545  S
C2031      C2222   1.486       .  S
C2032      C2048   1.724   1_554  S
C2033      C2149   1.652       .  S
O2034      V2042   1.914       .  S
O2034      C2044   1.267       .  A
O2035      V2042   1.909       .  S
O2035      C2045   1.267       .  A
O2036      V2042   1.907       .  S
O2036      C2046   1.264       .  A
O2037      V2042   1.908       .  S
O2037      C2047   1.265       .  A
O2038      V2043   1.899       .  S
O2038      C2047   1.267       .  A
O2039      V2043   1.891       .  S
O2039      C2046   1.263       .  A
O2040      V2043   1.899       .  S
O2040      C2045   1.263       .  A
O2041      V2043   1.897       .  S
O2041      C2044   1.263       .  A
V2042      V2043   2.086       .  T
C2044      C2094   1.480       .  S
C2045      C2126   1.480       .  S
C2046      C2158   1.475       .  S
C2047      C2053   1.495       .  S
C2048      C2062   1.665       .  S
C2049      C2050   1.401       .  A
C2049      C2054   1.411       .  A
C2049      H2059   1.083       .  S
C2050      C2055   1.487       .  S
C2050      C2051   1.414       .  A
C2051      C2056   1.519       .  S
C2051      C2052   1.404       .  A
C2052      C2053   1.406       .  A
C2052      H2057   1.083       .  S
C2053      C2054   1.425       .  A
C2054      C2058   1.516       .  S
C2055      C2060   1.405       .  A
C2055      C2064   1.395       .  A
C2056      F2072   1.380       .  S
C2056      F2073   1.385       .  S
C2056      F2074   1.381       .  S
C2058      F2069   1.376       .  S
C2058      F2070   1.385       .  S
C2058      F2071   1.383       .  S
C2060      C2065   1.530       .  S
C2060      C2061   1.410       .  A
C2061      C2062   1.439       .  A
C2061      H2066   1.069       .  S
C2062      C2063   1.455       .  A
C2063      C2067   1.535       .  S
C2063      C2064   1.417       .  A
C2064      H2068   1.085       .  S
C2065      F2078   1.385       .  S
C2065      F2079   1.383       .  S
C2065      F2080   1.380       .  S
C2067      F2075   1.381       .  S
C2067      F2076   1.364   1_565  S
C2067      F2077   1.373       .  S
C2081      C2082   1.381       .  A
C2081      C2086   1.419       .  A
C2081      H2091   1.084       .  S
C2082      C2087   1.490       .  S
C2082      C2083   1.396       .  A
C2083      C2088   1.524       .  S
C2083      C2084   1.412       .  A
C2084      C2085   1.419       .  A
C2084      H2089   1.024       .  S
C2085      C2086   1.485       .  A
C2086      C2090   1.529       .  S
C2087      C2092   1.418       .  A
C2087      C2096   1.405       .  A
C2088      F2104   1.382       .  S
C2088      F2105   1.381       .  S
C2088      F2106   1.380       .  S
C2090      F2101   1.378       .  S
C2090      F2102   1.381       .  S
C2090      F2103   1.360       .  S
C2092      C2097   1.521       .  S
C2092      C2093   1.410       .  A
C2093      C2094   1.405       .  A
C2093      H2098   1.083       .  S
C2094      C2095   1.414       .  A
C2095      C2099   1.517       .  S
C2095      C2096   1.408       .  A
C2096      H2100   1.084       .  S
C2097      F2110   1.384       .  S
C2097      F2111   1.382       .  S
C2097      F2112   1.381       .  S
C2099      F2107   1.385       .  S
C2099      F2108   1.382       .  S
C2099      F2109   1.383       .  S
C2113      C2114   1.399       .  A
C2113      C2118   1.401       .  A
C2113      H2123   1.084       .  S
C2114      C2119   1.495       .  S
C2114      C2115   1.423       .  A
C2115      C2120   1.519       .  S
C2115      C2116   1.418       .  A
C2116      C2117   1.427       .  A
C2116      H2121   1.050       .  S
C2117      C2118   1.443       .  A
C2118      C2122   1.539       .  S
C2119      C2124   1.424       .  A
C2119      C2128   1.408       .  A
C2120      F2136   1.382       .  S
C2120      F2137   1.383       .  S
C2120      F2138   1.379       .  S
C2122      F2133   1.389       .  S
C2122      F2134   1.364   1_556  S
C2122      F2135   1.377       .  S
C2124      C2129   1.520       .  S
C2124      C2125   1.408       .  A
C2125      C2126   1.402       .  A
C2125      H2130   1.084       .  S
C2126      C2127   1.410       .  A
C2127      C2131   1.512       .  S
C2127      C2128   1.403       .  A
C2128      H2132   1.081       .  S
C2129      F2142   1.384       .  S
C2129      F2143   1.383       .  S
C2129      F2144   1.377       .  S
C2131      F2139   1.385       .  S
C2131      F2140   1.384       .  S
C2131      F2141   1.381       .  S
C2145      C2146   1.386       .  A
C2145      C2150   1.419       .  A
C2145      H2155   1.087       .  S
C2146      C2151   1.489       .  S
C2146      C2147   1.400       .  A
C2147      C2152   1.524       .  S
C2147      C2148   1.409       .  A
C2148      C2149   1.432       .  A
C2148      H2153   1.049       .  S
C2149      C2150   1.478       .  A
C2150      C2154   1.523       .  S
C2151      C2156   1.422       .  A
C2151      C2160   1.401       .  A
C2152      F2168   1.381       .  S
C2152      F2169   1.384       .  S
C2152      F2170   1.375       .  S
C2154      F2165   1.379       .  S
C2154      F2166   1.373       .  S
C2154      F2167   1.342       .  S
C2156      C2161   1.514       .  S
C2156      C2157   1.402       .  A
C2157      C2158   1.398       .  A
C2157      H2162   1.084       .  S
C2158      C2159   1.416       .  A
C2159      C2163   1.515       .  S
C2159      C2160   1.408       .  A
C2160      H2164   1.080       .  S
C2161      F2174   1.385       .  S
C2161      F2175   1.376       .  S
C2161      F2176   1.380       .  S
C2163      F2171   1.384       .  S
C2163      F2172   1.378       .  S
C2163      F2173   1.382       .  S
C2177      C2182   1.411       .  A
C2177      H2187   1.083       .  S
C2178      C2183   1.502       .  S
C2178      C2179   1.423       .  A
C2179      C2184   1.518       .  S
C2179      C2180   1.412       .  A
C2180      H2185   1.085       .  S
C2181      C2182   1.412       .  A
C2182      C2186   1.516       .  S
C2183      C2188   1.403       .  A
C2184      F2200   1.383       .  S
C2184      F2201   1.377   1_655  S
C2184      F2202   1.384       .  S
C2186      F2197   1.383   1_565  S
C2186      F2198   1.384       .  S
C2186      F2199   1.383       .  S
C2188      C2193   1.523       .  S
C2188      C2189   1.421   1_655  A
C2189      H2194   1.027       .  S
C2190      C2191   1.483   1_455  A
C2191      C2192   1.418       .  A
C2192      H2196   1.086       .  S
C2193      F2206   1.378       .  S
C2193      F2207   1.383       .  S
C2193      F2208   1.380       .  S
C2195      F2203   1.386       .  S
C2195      F2204   1.354   1_556  S
C2195      F2205   1.384       .  S
C2209      C2214   1.410   1_655  A
C2209      H2219   1.087       .  S
C2210      C2215   1.473       .  S
C2210      C2211   1.391   1_565  A
C2211      C2216   1.529       .  S
C2211      C2212   1.403       .  A
C2212      C2213   1.456   1_645  A
C2212      H2217   1.057       .  S
C2215      C2220   1.412       .  A
C2216      F2232   1.383       .  S
C2216      F2233   1.381   1_545  S
C2216      F2234   1.385       .  S
C2218      F2229   1.381       .  S
C2218      F2230   1.380       .  S
C2218      F2231   1.323       .  S
C2220      C2225   1.522       .  S
C2220      C2221   1.398       .  A
C2221      C2222   1.410   1_565  A
C2221      H2226   1.084       .  S
C2223      C2227   1.520       .  S
C2223      C2224   1.406       .  A
C2224      H2228   1.082       .  S
C2225      F2238   1.384       .  S
C2225      F2239   1.383       .  S
C2225      F2240   1.380       .  S
C2227      F2235   1.384       .  S
C2227      F2236   1.383       .  S
C2227      F2237   1.385       .  S
C2241      C2246   1.411       .  A
C2241      H2251   1.086       .  S
C2242      C2247   1.495       .  S
C2242      C2243   1.394       .  A
C2243      C2248   1.524       .  S
C2243      C2244   1.419       .  A
C2244      H2249   1.038       .  S
C2245      C2246   1.486       .  A
C2246      C2250   1.530   1_556  S
C2247      C2252   1.420       .  A
C2248      F2264   1.382       .  S
C2248      F2265   1.382       .  S
C2248      F2266   1.375       .  S
C2250      F2261   1.377       .  S
C2250      F2262   1.384   1_554  S
C2252      C2257   1.517       .  S
C2252      C2253   1.406       .  A
C2253      H2258   1.085       .  S
C2254      C2255   1.422       .  A
C2255      C2259   1.521       .  S
C2255      C2256   1.404       .  A
C2256      H2260   1.084       .  S
C2257      F2270   1.383       .  S
C2257      F2271   1.383       .  S
C2257      F2272   1.377       .  S
C2259      F2267   1.383       .  S
C2259      F2268   1.384       .  S
C2259      F2269   1.385       .  S
C2273      C2278   1.414       .  A
C2273      H2283   1.087       .  S
C2274      C2279   1.502       .  S
C2274      C2275   1.399       .  A
C2275      C2280   1.520       .  S
C2275      C2276   1.420       .  A
C2276      H2281   1.069       .  S
C2277      C2278   1.485       .  A
C2278      C2282   1.534   1_545  S
C2279      C2284   1.415       .  A
C2280      F2296   1.381       .  S
C2280      F2297   1.383       .  S
C2280      F2298   1.384       .  S
C2282      F2293   1.385       .  S
C2282      F2294   1.386       .  S
C2282      F2295   1.335       .  S
C2284      C2289   1.514       .  S
C2284      C2285   1.411       .  A
C2285      H2290   1.082       .  S
C2286      C2287   1.422   1_545  A
C2287      C2291   1.519       .  S
C2287      C2288   1.410   1_565  A
C2288      H2292   1.082   1_545  S
C2289      F2302   1.385       .  S
C2289      F2303   1.378       .  S
C2289      F2304   1.380       .  S
C2291      F2299   1.383       .  S
C2291      F2300   1.384       .  S
C2291      F2301   1.385       .  S
