geometry optimzed in LAMMPS
_audit_creation_date              2020-11-30 
_audit_creation_method            'lammps2cif' 
_symmetry_space_group_name_H-M    'P1' 
_symmetry_Int_Tables_number       1 
_symmetry_cell_setting            triclinic 
loop_ 
_symmetry_equiv_pos_as_xyz 
  x,y,z 
_cell_length_a                    40.88053871 
_cell_length_b                    40.107692799884134 
_cell_length_c                    37.721332803760305 
_cell_angle_alpha                 90.20028374898347 
_cell_angle_beta                  90.88821948330077 
_cell_angle_gamma                 88.76247723475839 
loop_ 
_atom_site_label 
_atom_site_type_symbol 
_atom_site_fract_x 
_atom_site_fract_y 
_atom_site_fract_z 
_atom_site_charge 
C1          C  0.10685485  0.50381190  0.99799987    -0.01700
O2          O  0.36161833  0.46332069  0.21467365    -0.72100
O3          O  0.29015976  0.46658648  0.28717879    -0.73100
O4          O  0.29224975  0.46125746  0.21203664    -0.61700
O5          O  0.36063944  0.46964688  0.28933957    -0.70100
O6          O  0.35875915  0.02181061  0.28475321    -0.69700
O7          O  0.28884420  0.01491821  0.21069038    -0.60900
O8          O  0.28878698  0.01937275  0.28533924    -0.73400
O9          O  0.35820499  0.01585320  0.21027220    -0.72200
Cu10       Cu  0.32628260  0.46326085  0.25109806     1.04600
Cu11       Cu  0.32355266  0.01987943  0.24774262     1.04300
C12         C  0.37114891  0.49014905  0.20040597     0.94100
C13         C  0.27733305  0.49458329  0.29654588     0.93200
C14         C  0.27991600  0.48789372  0.19841044     0.85400
C15         C  0.37125343  0.49845418  0.29783640     0.92000
C16         C  0.04554058  0.50157347  0.00266390    -0.01700
C17         C  0.07378268  0.03413078  0.50121375    -0.01700
O18         O  0.09500748  0.28996193  0.21968385    -0.72100
O19         O  0.09653150  0.21388907  0.28993438    -0.73100
O20         O  0.10039250  0.21934766  0.21598279    -0.61700
O21         O  0.09299332  0.28477414  0.29526181    -0.70100
O22         O  0.03889539  0.28427659  0.29135358    -0.69700
O23         O  0.04620681  0.21676971  0.21184452    -0.60900
O24         O  0.04265818  0.21305541  0.28605714    -0.73400
O25         O  0.04110954  0.28780752  0.21546561    -0.72200
Cu26       Cu  0.09804469  0.25226771  0.25538772     1.04600
Cu27       Cu  0.04029249  0.25056658  0.25111877     1.04300
C28         C  0.06790124  0.30033074  0.20561579     0.94100
C29         C  0.06958156  0.20056600  0.29820545     0.93200
C30         C  0.07471516  0.20710029  0.20210848     0.85400
C31         C  0.06509810  0.29493915  0.30608164     0.91600
C32         C  0.07784714  0.47318979  0.00225706    -0.01700
C33         C  0.04586271  0.37015456  0.36486774    -0.11000
C34         C  0.06953785  0.36590363  0.39183983     0.11500
C35         C  0.08901122  0.33637168  0.39289251    -0.02900
C36         C  0.08650150  0.31368667  0.36443884    -0.05600
C37         C  0.06399925  0.31885698  0.33621671    -0.16400
C38         C  0.04276255  0.34727367  0.33676767     0.02600
C39         C  0.07239217  0.39254193  0.41925163     0.12500
C40         C  0.11120325  0.32831980  0.42456888     0.63100
H41         H  0.10189379  0.29136692  0.36422323     0.12500
C42         C  0.01769833  0.35422904  0.30744194     0.55300
H43         H  0.02981696  0.39179661  0.36588566     0.08300
C44         C  0.09140921  0.42068727  0.41489267    -0.05500
C45         C  0.09147011  0.44571646  0.44170127    -0.06200
C46         C  0.07241387  0.44495521  0.47341284    -0.15800
C47         C  0.05312156  0.41410363  0.47629193    -0.01400
C48         C  0.05392105  0.38989488  0.44909999    -0.08900
C49         C  0.11049446  0.42407192  0.38078995     0.65300
H50         H  0.10458805  0.46712282  0.43553616     0.10800
C51         C  0.03321613  0.39998416  0.50688054     0.63700
H52         H  0.03995244  0.36725805  0.45123296     0.08100
F53         F  0.00194294  0.38486403  0.31177663    -0.19300
F54         F  0.99418839  0.32997162  0.30746911    -0.15500
F55         F  0.03294417  0.35436211  0.27496159    -0.19000
F56         F  0.09240268  0.32476289  0.45442629    -0.22400
F57         F  0.13309102  0.35360211  0.43046161    -0.23900
F58         F  0.12895215  0.29892683  0.41964122    -0.17900
F59         F  0.00359974  0.38844119  0.49413665    -0.20400
F60         F  0.02818019  0.42171949  0.03086038    -0.21500
F61         F  0.04917682  0.37201279  0.52031346    -0.18700
F62         F  0.12787345  0.45279329  0.37999367    -0.18800
F63         F  0.08956659  0.42456763  0.35168857    -0.22600
F64         F  0.13221547  0.39746269  0.37724946    -0.24200
C65         C  0.04884388  0.35480190  0.12350411    -0.11000
C66         C  0.07565381  0.37601962  0.12426494     0.11500
C67         C  0.09825606  0.37387333  0.15314468    -0.02900
C68         C  0.09472099  0.34862255  0.17852460    -0.05600
C69         C  0.06824412  0.32688824  0.17772782    -0.16400
C70         C  0.04409936  0.33078482  0.15020627     0.02600
C71         C  0.07902883  0.40043828  0.09462162     0.12500
C72         C  0.12473283  0.39935796  0.15885327     0.63100
H73         H  0.11225338  0.34645121  0.20023872     0.12500
C74         C  0.01319369  0.31040782  0.14885400     0.55300
H75         H  0.03135979  0.35760458  0.10179648     0.08300
C76         C  0.09639384  0.39285625  0.06370343    -0.05500
C77         C  0.09713734  0.41725257  0.03648920    -0.06200
C78         C  0.08443332  0.45094970  0.03945829    -0.15800
C79         C  0.07586287  0.45848949  0.07610052    -0.01400
C80         C  0.06518945  0.43223738  0.09784995    -0.08900
C81         C  0.11093851  0.35791195  0.05802231     0.65300
H82         H  0.10620171  0.40836102  0.01162204     0.10800
C83         C  0.09438175  0.48244378  0.10065525     0.63700
H84         H  0.05289791  0.43787775  0.12249716     0.08100
F85         F  0.02102159  0.27669792  0.14905662    -0.19300
F86         F  0.99453762  0.31690513  0.11859781    -0.15500
F87         F  0.99416715  0.31833358  0.17782521    -0.19000
F88         F  0.11014320  0.42959580  0.16762154    -0.22400
F89         F  0.14293987  0.40289238  0.12862061    -0.23900
F90         F  0.14607708  0.39038441  0.18624452    -0.17900
F91         F  0.07675853  0.48960264  0.13079153    -0.20400
F92         F  0.10120038  0.51238524  0.08565933    -0.21500
F93         F  0.12289531  0.46725414  0.11246341    -0.18700
F94         F  0.12566244  0.35449068  0.02538617    -0.18800
F95         F  0.08665735  0.33451651  0.05973388    -0.22600
F96         F  0.13420176  0.35079295  0.08401734    -0.24200
C97         C  0.05362510  0.10891291  0.43076125    -0.11000
C98         C  0.05954977  0.09293970  0.39898034     0.11500
C99         C  0.06504349  0.05844565  0.39919579    -0.02900
C100        C  0.06834522  0.04201360  0.43233230    -0.05600
C101        C  0.06504931  0.05731264  0.46614759    -0.16400
C102        C  0.05186183  0.09207336  0.46352665     0.02600
C103        C  0.06117935  0.11443260  0.36687593     0.12500
C104        C  0.06864859  0.03960156  0.36452065     0.63100
H105        H  0.07585198  0.01649540  0.43177135     0.12500
C106        C  0.03440223  0.11427384  0.49111124     0.55300
H107        H  0.04982599  0.13569164  0.42916289     0.08300
C108        C  0.03322979  0.13184113  0.35347522    -0.05500
C109        C  0.03744632  0.15943199  0.33138281    -0.06200
C110        C  0.06856613  0.17027458  0.32142836    -0.15800
C111        C  0.09665378  0.15132874  0.33302665    -0.01400
C112        C  0.09223816  0.12390974  0.35570805    -0.08900
C113        C  0.99837864  0.12313834  0.36240005     0.65300
H114        H  0.01569202  0.17294728  0.32224996     0.10800
C115        C  0.13126982  0.15984057  0.32254813     0.63700
H116        H  0.11336934  0.11054190  0.36634395     0.08100
F117        F  0.01884990  0.14213438  0.47630436    -0.19300
F118        F  0.05527642  0.12653966  0.51635885    -0.15500
F119        F  0.01224664  0.10039899  0.01192858    -0.19000
F120        F  0.09488240  0.05132410  0.34595573    -0.22400
F121        F  0.04057039  0.04428499  0.34410326    -0.23900
F122        F  0.07363285  0.00578675  0.36987202    -0.17900
F123        F  0.15425687  0.13698858  0.33565377    -0.20400
F124        F  0.13916988  0.19084789  0.33592795    -0.21500
F125        F  0.13367192  0.15979659  0.28600554    -0.18700
F126        F  0.98035444  0.11979107  0.33131671    -0.18800
F127        F  0.98457583  0.14866647  0.38226791    -0.22600
F128        F  0.99629799  0.09372689  0.38110498    -0.24200
C129        C  0.08644462  0.15923316  0.11634034    -0.11000
C130        C  0.08439412  0.12622713  0.12842498     0.11500
C131        C  0.08232232  0.12021552  0.16529815    -0.02900
C132        C  0.07787967  0.14758561  0.18814679    -0.05600
C133        C  0.07840454  0.18047081  0.17572551    -0.16400
C134        C  0.08466424  0.18660177  0.13957760     0.02600
C135        C  0.08241137  0.09955927  0.10103250     0.12500
C136        C  0.08524800  0.08599291  0.18207504     0.63100
H137        H  0.07491323  0.14323957  0.21628818     0.12500
C138        C  0.08987229  0.22096495  0.12400312     0.55300
H139        H  0.08907421  0.16374230  0.08824832     0.08300
C140        C  0.05227606  0.08994881  0.08638893    -0.05500
C141        C  0.05255229  0.06830966  0.05667784    -0.06200
C142        C  0.08017819  0.05904177  0.03688837    -0.15800
C143        C  0.10743483  0.08040858  0.04717191    -0.01400
C144        C  0.11057811  0.09070353  0.08282890    -0.08900
C145        C  0.02026469  0.10507977  0.09956628     0.65300
H146        H  0.03018710  0.06008550  0.04706931     0.10800
C147        C  0.12444437  0.10570146  0.02380420     0.63700
H148        H  0.13291346  0.10238360  0.09171927     0.08100
F149        F  0.06641545  0.22737359  0.09798099    -0.19300
F150        F  0.12046683  0.22149226  0.10885287    -0.15500
F151        F  0.08823135  0.24642660  0.14868152    -0.19000
F152        F  0.09320323  0.06124423  0.15804300    -0.22400
F153        F  0.05600290  0.07839580  0.19777466    -0.23900
F154        F  0.10964303  0.08620988  0.20792836    -0.17900
F155        F  0.11710926  0.13797762  0.03484677    -0.20400
F156        F  0.11443825  0.10367056  0.98959175    -0.21500
F157        F  0.15804228  0.10271714  0.02610049    -0.18700
F158        F  0.49106578  0.08630686  0.08515477    -0.18800
F159        F  0.01869143  0.13857743  0.09104059    -0.22600
F160        F  0.01816106  0.10195117  0.13591027    -0.24200
C161        C  0.44726329  0.02230599  0.35110654    -0.11000
C162        C  0.44542944  0.50357083  0.38023411     0.11500
C163        C  0.41955795  0.48056702  0.38179032    -0.02900
C164        C  0.39661817  0.47946169  0.35381846    -0.05600
C165        C  0.39762754  0.50128379  0.32508780    -0.16400
C166        C  0.42322492  0.02218530  0.32389915     0.02600
C167        C  0.47146385  0.50559721  0.40850295     0.12500
C168        C  0.41414419  0.45901934  0.41389346     0.63100
H169        H  0.37654591  0.46232571  0.35495660     0.12500
C170        C  0.42507121  0.04735274  0.29401546     0.55300
H171        H  0.46625830  0.04072443  0.35117115     0.08300
C172        C  0.50089059  0.48767092  0.40688879    -0.05500
C173        C  0.52349467  0.48953097  0.43558955    -0.06200
C174        C  0.51880748  0.50699214  0.46855137    -0.15800
C175        C  0.48831209  0.02511277  0.46564338    -0.01400
C176        C  0.46760949  0.02358840  0.43502898    -0.08900
C177        C  0.50812961  0.46591942  0.37469888     0.65300
H178        H  0.04363002  0.47704267  0.43188889     0.10800
C179        C  0.46947720  0.04586724  0.49311976     0.63700
H180        H  0.44477794  0.03794711  0.43367355     0.08100
F181        F  0.45332261  0.06572350  0.29625555    -0.19300
F182        F  0.39873893  0.06950711  0.29538897    -0.15500
F183        F  0.42491636  0.03094110  0.26169485    -0.19000
F184        F  0.40329330  0.47926803  0.44115362    -0.22400
F185        F  0.44270309  0.44233012  0.42375068    -0.23900
F186        F  0.39068254  0.43523496  0.40753494    -0.17900
F187        F  0.46456970  0.07790926  0.48027349    -0.20400
F188        F  0.48191553  0.04538645  0.02672117    -0.21500
F189        F  0.43866913  0.03306206  0.49762538    -0.18700
F190        F  0.03646218  0.44971440  0.37911926    -0.18800
F191        F  0.50579879  0.48456212  0.34401442    -0.22600
F192        F  0.48607403  0.44035915  0.37248818    -0.24200
C193        C  0.46417968  0.47669069  0.05894484    -0.11000
C194        C  0.46858890  0.98957853  0.09051312     0.11500
C195        C  0.49910417  0.00328577  0.09737440    -0.02900
C196        C  0.52283854  0.00289657  0.07032163    -0.05600
C197        C  0.51896500  0.49283277  0.03511410    -0.16400
C198        C  0.48739479  0.47549916  0.03143006     0.02600
C199        C  0.44232023  0.98827407  0.11776406     0.12500
C200        C  0.50596688  0.01927461  0.13325080     0.63100
H201        H  0.04827162  0.01426517  0.07657571     0.12500
C202        C  0.47309745  0.45496130  0.00104624     0.55300
H203        H  0.44052496  0.46519851  0.05541462     0.08300
C204        C  0.41436752  0.00984503  0.11678884    -0.05500
C205        C  0.39207738  0.00884944  0.14477626    -0.06200
C206        C  0.39664710  0.48898781  0.17273951    -0.15800
C207        C  0.42409426  0.46660256  0.17365107    -0.01400
C208        C  0.44704127  0.46797472  0.14624517    -0.08900
C209        C  0.40777220  0.03368303  0.08626108     0.65300
H210        H  0.37082007  0.02543681  0.14451183     0.10800
C211        C  0.42978945  0.44184413  0.20358282     0.63700
H212        H  0.46799231  0.45098278  0.14619216     0.08100
F213        F  0.44686948  0.47199122  0.98645780    -0.19300
F214        F  0.46093979  0.42551762  0.01411234    -0.15500
F215        F  0.49594202  0.44684871  0.47398638    -0.19000
F216        F  0.50862139  0.99505169  0.15913191    -0.22400
F217        F  0.48091936  0.04145476  0.14183598    -0.23900
F218        F  0.03807708  0.03775366  0.13319815    -0.17900
F219        F  0.40636707  0.41751662  0.20183066    -0.20400
F220        F  0.42814620  0.45811778  0.23591922    -0.21500
F221        F  0.46022814  0.42615865  0.20166833    -0.18700
F222        F  0.38012064  0.05351284  0.09158851    -0.18800
F223        F  0.40287619  0.01579483  0.05537514    -0.22600
F224        F  0.43398468  0.05437010  0.08234431    -0.24200
C225        C  0.14632050  0.01104483  0.40290216    -0.11000
C226        C  0.17687961  0.49718938  0.40590700     0.11500
C227        C  0.18951576  0.49481907  0.44093363    -0.02900
C228        C  0.16736353  0.49968603  0.46934096    -0.05600
C229        C  0.13278880  0.50884722  0.46523555    -0.16400
C230        C  0.13316299  0.02813883  0.43242069     0.02600
C231        C  0.19880523  0.49380588  0.37404091     0.12500
C232        C  0.22622872  0.49163066  0.44850465     0.63100
H233        H  0.17931959  0.49941861  0.49445785     0.12500
C234        C  0.14697911  0.06376969  0.43257597     0.55300
H235        H  0.13776633  0.01779470  0.37661578     0.08300
C236        C  0.21586571  0.46394405  0.36419240    -0.05500
C237        C  0.24082617  0.46548084  0.33879383    -0.06200
C238        C  0.24919223  0.49540963  0.32198813    -0.15800
C239        C  0.22653243  0.02003248  0.32524073    -0.01400
C240        C  0.20265367  0.01944612  0.35169948    -0.08900
C241        C  0.20791985  0.42947404  0.37767532     0.65300
H242        H  0.25410824  0.44266569  0.33222292     0.10800
C243        C  0.22617042  0.04917559  0.29958584     0.63700
H244        H  0.18659295  0.04088456  0.35481886     0.08100
F245        F  0.17101489  0.06851659  0.40768770    -0.19300
F246        F  0.16162984  0.07100245  0.46467678    -0.15500
F247        F  0.12296571  0.08688606  0.42465827    -0.19000
F248        F  0.24271799  0.51452166  0.42850340    -0.22400
F249        F  0.23753169  0.45996097  0.44038260    -0.23900
F250        F  0.23401444  0.49772065  0.48375655    -0.17900
F251        F  0.22727408  0.03740210  0.26513549    -0.20400
F252        F  0.25267098  0.06917202  0.30638160    -0.21500
F253        F  0.19801216  0.06877530  0.30243375    -0.18700
F254        F  0.23613403  0.41360029  0.39026978    -0.18800
F255        F  0.19552911  0.41089209  0.34977094    -0.22600
F256        F  0.18535403  0.43007034  0.40449817    -0.24200
C257        C  0.23572686  0.47208465  0.11093877    -0.11000
C258        C  0.20755366  0.99317644  0.11630405     0.11500
C259        C  0.20144202  0.00762936  0.15004505    -0.02900
C260        C  0.22519564  0.00343442  0.17692382    -0.05600
C261        C  0.25472131  0.48634656  0.17016967    -0.16400
C262        C  0.25990289  0.46932097  0.13778875     0.02600
C263        C  0.18452257  0.99627409  0.08570864     0.12500
C264        C  0.17076260  0.02738470  0.15983347     0.63100
H265        H  0.22099410  0.01471337  0.20262485     0.12500
C266        C  0.29145832  0.44979507  0.13104402     0.55300
H267        H  0.23956669  0.45993183  0.08560919     0.08300
C268        C  0.17911884  0.02593253  0.06664665    -0.05500
C269        C  0.15308775  0.02697549  0.04150012    -0.06200
C270        C  0.13355602  0.49811190  0.02999168    -0.15800
C271        C  0.15177278  0.46691247  0.03885921    -0.01400
C272        C  0.17168838  0.46581575  0.06957098    -0.08900
C273        C  0.20291613  0.05458645  0.06822237     0.65300
H274        H  0.15188102  0.04738903  0.02393867     0.10800
C275        C  0.16293186  0.43888798  0.01357472     0.63700
H276        H  0.18097059  0.44201569  0.07949220     0.08100
F277        F  0.29275371  0.43769381  0.09666982    -0.19300
F278        F  0.29396709  0.42291863  0.15384383    -0.15500
F279        F  0.31797242  0.47016243  0.13648923    -0.19000
F280        F  0.15479250  0.01079423  0.18636322    -0.22400
F281        F  0.14912349  0.03206320  0.13192758    -0.23900
F282        F  0.17941380  0.05848278  0.17238208    -0.17900
F283        F  0.19556624  0.44267086  0.00568970    -0.20400
F284        F  0.14570880  0.43817108  0.98222019    -0.21500
F285        F  0.16170180  0.40809572  0.02972164    -0.18700
F286        F  0.21199350  0.06259631  0.03415820    -0.18800
F287        F  0.23134392  0.04692543  0.08704192    -0.22600
F288        F  0.18837111  0.08210366  0.08385149    -0.24200
C289        C  0.10486571  0.50511285  0.49846678    -0.01700
O290        O  0.36119685  0.46425404  0.71351933    -0.72100
O291        O  0.28939966  0.46861123  0.78573018    -0.73100
O292        O  0.29169627  0.46318434  0.71029200    -0.61700
O293        O  0.35967943  0.47073884  0.78855238    -0.70100
O294        O  0.35896701  0.02371925  0.78414947    -0.69700
O295        O  0.28908473  0.01895736  0.70856225    -0.60900
O296        O  0.28858241  0.02281216  0.78323841    -0.73400
O297        O  0.35848932  0.01941753  0.70900807    -0.72200
Cu298      Cu  0.32557842  0.46472410  0.74979155     1.04600
Cu299      Cu  0.32374369  0.02312248  0.74625302     1.04300
C300        C  0.37111218  0.49100199  0.69937702     0.94100
C301        C  0.27690904  0.49674844  0.79513996     0.93200
C302        C  0.27996049  0.49008028  0.69659944     0.85400
C303        C  0.37017276  0.49950541  0.79741145     0.92000
C304        C  0.04362981  0.50306771  0.50344997    -0.01700
C305        C  0.07582593  0.03390721  0.00262043    -0.01700
O306        O  0.09507345  0.29076812  0.71850018    -0.72100
O307        O  0.09582436  0.21369975  0.78779988    -0.73100
O308        O  0.09980730  0.22016766  0.71354504    -0.61700
O309        O  0.09312676  0.28452435  0.79358848    -0.70100
O310        O  0.03895727  0.28454199  0.79015714    -0.69700
O311        O  0.04558332  0.21748946  0.71044304    -0.60900
O312        O  0.04192384  0.21332016  0.78500246    -0.73400
O313        O  0.04116016  0.28838329  0.71486849    -0.72200
Cu314      Cu  0.09780651  0.25244785  0.75351590     1.04600
Cu315      Cu  0.04000485  0.25096641  0.75000769     1.04300
C316        C  0.06775825  0.30137022  0.70516025     0.94100
C317        C  0.06888731  0.20083879  0.79702234     0.93200
C318        C  0.07392557  0.20820036  0.69985141     0.85400
C319        C  0.06538428  0.29501257  0.80449841     0.91600
C320        C  0.07583412  0.47458368  0.50349024    -0.01700
C321        C  0.04861175  0.37131262  0.86208007    -0.11000
C322        C  0.07214775  0.36649614  0.88910800     0.11500
C323        C  0.09062868  0.33631618  0.89054174    -0.02900
C324        C  0.08695684  0.31327316  0.86264114    -0.05600
C325        C  0.06478633  0.31907712  0.83430736    -0.16400
C326        C  0.04484907  0.34841723  0.83415910     0.02600
C327        C  0.07499591  0.39279953  0.91677615     0.12500
C328        C  0.11360590  0.32826025  0.92157233     0.63100
H329        H  0.10155537  0.29040979  0.86264203     0.12500
C330        C  0.02061731  0.35637565  0.80426580     0.55300
H331        H  0.03322794  0.39342732  0.86286402     0.08300
C332        C  0.09417412  0.42092021  0.91296110    -0.05500
C333        C  0.09387965  0.44567565  0.94002878    -0.06200
C334        C  0.07447854  0.44449179  0.97145898    -0.15800
C335        C  0.05456019  0.41411629  0.97340271    -0.01400
C336        C  0.05560315  0.39022684  0.94597390    -0.08900
C337        C  0.11376683  0.42465845  0.87920823     0.65300
H338        H  0.10729210  0.46703250  0.93447739     0.10800
C339        C  0.03405795  0.40009192  0.00347110     0.63700
H340        H  0.04119086  0.36782973  0.94748651     0.08100
F341        F  0.00608048  0.38767118  0.80821835    -0.19300
F342        F  0.99607244  0.33321159  0.80374626    -0.15500
F343        F  0.03648600  0.35576619  0.77213910    -0.19000
F344        F  0.09641524  0.32889098  0.95284180    -0.22400
F345        F  0.13813267  0.35135369  0.92374706    -0.23900
F346        F  0.12811754  0.29691569  0.91822261    -0.17900
F347        F  0.00439952  0.38920686  0.99013335    -0.20400
F348        F  0.02707220  0.42181313  0.53406099    -0.21500
F349        F  0.04931122  0.37175623  0.01684359    -0.18700
F350        F  0.13065900  0.45373657  0.87867653    -0.18800
F351        F  0.09321805  0.42468419  0.84976732    -0.22600
F352        F  0.13613583  0.39857040  0.87606956    -0.24200
C353        C  0.04621064  0.35829089  0.62590069    -0.11000
C354        C  0.07239457  0.38028595  0.62726902     0.11500
C355        C  0.09520004  0.37810751  0.65585277    -0.02900
C356        C  0.09271813  0.35192711  0.68036561    -0.05600
C357        C  0.06727230  0.32894029  0.67848792    -0.16400
C358        C  0.04288917  0.33274582  0.65121557     0.02600
C359        C  0.07617648  0.40429750  0.59746857     0.12500
C360        C  0.12114353  0.40419591  0.66146298     0.63100
H361        H  0.11046727  0.34964024  0.70186493     0.12500
C362        C  0.01378558  0.30986424  0.64805663     0.55300
H363        H  0.02864576  0.36104902  0.60426077     0.08300
C364        C  0.09429103  0.39613815  0.56723976    -0.05500
C365        C  0.09523124  0.41981082  0.53942090    -0.06200
C366        C  0.08235387  0.45344385  0.54133398    -0.15800
C367        C  0.07368766  0.46194336  0.57770994    -0.01400
C368        C  0.06257741  0.43626970  0.59995573    -0.08900
C369        C  0.10973648  0.36136399  0.56296601     0.65300
H370        H  0.10442097  0.41029925  0.51490252     0.10800
C371        C  0.09228028  0.48638398  0.60167263     0.63700
H372        H  0.05005276  0.44249695  0.62431162     0.08100
F373        F  0.02447010  0.27695210  0.64628862    -0.19300
F374        F  0.99498854  0.31642540  0.61793359    -0.15500
F375        F  0.99382861  0.31433450  0.67704472    -0.19000
F376        F  0.10593557  0.43457804  0.66825746    -0.22400
F377        F  0.14026439  0.40685450  0.63177998    -0.23900
F378        F  0.14165457  0.39663279  0.68998463    -0.17900
F379        F  0.07496885  0.49382972  0.63194112    -0.20400
F380        F  0.09875819  0.51618841  0.58612868    -0.21500
F381        F  0.12096533  0.47154824  0.61339439    -0.18700
F382        F  0.12314948  0.35665698  0.52983224    -0.18800
F383        F  0.08652842  0.33720397  0.56732298    -0.22600
F384        F  0.13427446  0.35646858  0.58810607    -0.24200
C385        C  0.05467817  0.11126937  0.93509012    -0.11000
C386        C  0.06047079  0.09626349  0.90274248     0.11500
C387        C  0.06629538  0.06188618  0.90174419    -0.02900
C388        C  0.06995396  0.04450719  0.93426028    -0.05600
C389        C  0.06689997  0.05862049  0.96870171    -0.16400
C390        C  0.05372160  0.09360329  0.96756554     0.02600
C391        C  0.06167201  0.11837440  0.87106541     0.12500
C392        C  0.06978501  0.04420612  0.86630959     0.63100
H393        H  0.07778555  0.01913573  0.93270869     0.12500
C394        C  0.03765141  0.11570938  0.99654922     0.55300
H395        H  0.05058660  0.13801232  0.93404220     0.08300
C396        C  0.03335397  0.13430856  0.85654547    -0.05500
C397        C  0.03708577  0.16058201  0.83241214    -0.06200
C398        C  0.06806089  0.17145898  0.82171742    -0.15800
C399        C  0.09645228  0.15387753  0.83478076    -0.01400
C400        C  0.09254609  0.12810775  0.85964346    -0.08900
C401        C  0.99865294  0.12516670  0.86597284     0.65300
H402        H  0.01512534  0.17302335  0.82221212     0.10800
C403        C  0.13087745  0.16189155  0.82319770     0.63700
H404        H  0.11389303  0.11586112  0.87132817     0.08100
F405        F  0.02355011  0.14498507  0.98332937    -0.19300
F406        F  0.05946523  0.12596353  0.02182242    -0.15500
F407        F  0.00984823  0.09779027  0.50639598    -0.19000
F408        F  0.09531871  0.05723275  0.84757634    -0.22400
F409        F  0.04119989  0.04862645  0.84664478    -0.23900
F410        F  0.07585982  0.01042222  0.87033133    -0.17900
F411        F  0.15419445  0.14026802  0.83786474    -0.20400
F412        F  0.13863581  0.19383222  0.83384468    -0.21500
F413        F  0.13290983  0.15914420  0.78671387    -0.18700
F414        F  0.98135068  0.11786573  0.83523872    -0.18800
F415        F  0.98354904  0.15204462  0.88253321    -0.22600
F416        F  0.99711624  0.09781432  0.88803678    -0.24200
C417        C  0.08601438  0.16127345  0.61359215    -0.11000
C418        C  0.08232529  0.12832977  0.62510139     0.11500
C419        C  0.07942021  0.12190241  0.66176642    -0.02900
C420        C  0.07494356  0.14903324  0.68483993    -0.05600
C421        C  0.07712925  0.18198282  0.67300776    -0.16400
C422        C  0.08471646  0.18831981  0.63718433     0.02600
C423        C  0.08014858  0.10216795  0.59729913     0.12500
C424        C  0.08254195  0.08754617  0.67812971     0.63100
H425        H  0.07119372  0.14441691  0.71280534     0.12500
C426        C  0.09174458  0.22246404  0.62214735     0.55300
H427        H  0.08968278  0.16594720  0.58565517     0.08300
C428        C  0.04995557  0.09229754  0.58307963    -0.05500
C429        C  0.05016583  0.06990175  0.55394482    -0.06200
C430        C  0.07786186  0.06053041  0.53422783    -0.15800
C431        C  0.10451583  0.08308555  0.54287707    -0.01400
C432        C  0.10792757  0.09501835  0.57785360    -0.08900
C433        C  0.01815772  0.10824696  0.59590749     0.65300
H434        H  0.02810812  0.06094807  0.54492656     0.10800
C435        C  0.12163366  0.10663798  0.51780515     0.63700
H436        H  0.12952735  0.10857519  0.58542807     0.08100
F437        F  0.06943421  0.22984110  0.59522701    -0.19300
F438        F  0.12287688  0.22183051  0.60821418    -0.15500
F439        F  0.09017072  0.24779961  0.64695299    -0.19000
F440        F  0.09234749  0.06352726  0.65406515    -0.22400
F441        F  0.05292380  0.07884202  0.69225014    -0.23900
F442        F  0.10584079  0.08802400  0.70513542    -0.17900
F443        F  0.11350282  0.13952120  0.52577777    -0.20400
F444        F  0.11248220  0.10171092  0.48375941    -0.21500
F445        F  0.15522491  0.10415287  0.52118492    -0.18700
F446        F  0.49282039  0.08969882  0.58265218    -0.18800
F447        F  0.01876599  0.14234425  0.59066641    -0.22600
F448        F  0.01416446  0.10232688  0.63158371    -0.24200
C449        C  0.44785437  0.02122791  0.85089039    -0.11000
C450        C  0.44292070  0.50483642  0.88117572     0.11500
C451        C  0.41574586  0.48350423  0.88359427    -0.02900
C452        C  0.39299937  0.48240699  0.85537473    -0.05600
C453        C  0.39588093  0.50236973  0.82533098    -0.16400
C454        C  0.42377486  0.02182152  0.82364093     0.02600
C455        C  0.46913653  0.50633075  0.90928771     0.12500
C456        C  0.40962203  0.46303707  0.91632370     0.63100
H457        H  0.37198992  0.46650787  0.85699734     0.12500
C458        C  0.42633724  0.04689254  0.79375996     0.55300
H459        H  0.46723222  0.03910309  0.85092595     0.08300
C460        C  0.49812973  0.48767462  0.90759379    -0.05500
C461        C  0.52098945  0.48924997  0.93609769    -0.06200
C462        C  0.51686012  0.50686691  0.96903081    -0.15800
C463        C  0.48783634  0.02369897  0.96633312    -0.01400
C464        C  0.46739446  0.02216751  0.93541620    -0.08900
C465        C  0.50478109  0.46588739  0.87529582     0.65300
H466        H  0.04501749  0.47632105  0.93065527     0.10800
C467        C  0.46895688  0.04455142  0.99361790     0.63700
H468        H  0.44455765  0.03651019  0.93385645     0.08100
F469        F  0.45554185  0.06372765  0.79542820    -0.19300
F470        F  0.40109864  0.07029019  0.79578954    -0.15500
F471        F  0.42477845  0.03066287  0.76136553    -0.19000
F472        F  0.40123415  0.48439343  0.94367112    -0.22400
F473        F  0.43724458  0.44433191  0.92532231    -0.23900
F474        F  0.38420622  0.44115216  0.91128695    -0.17900
F475        F  0.46487014  0.07674039  0.98092472    -0.20400
F476        F  0.48286879  0.04728980  0.52598266    -0.21500
F477        F  0.43783117  0.03228944  0.99748105    -0.18700
F478        F  0.03828497  0.45063393  0.87704281    -0.18800
F479        F  0.50464905  0.48505071  0.84494632    -0.22600
F480        F  0.48106265  0.44201277  0.87180808    -0.24200
C481        C  0.46445635  0.47744932  0.55726823    -0.11000
C482        C  0.46823024  0.99244912  0.58847920     0.11500
C483        C  0.49912788  0.00507543  0.59579022    -0.02900
C484        C  0.52303494  0.00453997  0.56890208    -0.05600
C485        C  0.51997762  0.49303476  0.53456419    -0.16400
C486        C  0.48839609  0.47572163  0.53042628     0.02600
C487        C  0.44179803  0.99151828  0.61551196     0.12500
C488        C  0.50653267  0.01938255  0.63228341     0.63100
H489        H  0.04699471  0.01684115  0.57690223     0.12500
C490        C  0.47474405  0.45456708  0.50022769     0.55300
H491        H  0.44075275  0.46615402  0.55321969     0.08300
C492        C  0.41496035  0.01453861  0.61552174    -0.05500
C493        C  0.39256121  0.01358147  0.64345304    -0.06200
C494        C  0.39642274  0.48969597  0.67140410    -0.15800
C495        C  0.42336883  0.46666007  0.67148007    -0.01400
C496        C  0.44585456  0.46773941  0.64355549    -0.08900
C497        C  0.40951992  0.03965788  0.58594932     0.65300
H498        H  0.37191605  0.03095655  0.64370865     0.10800
C499        C  0.42956154  0.44211398  0.70152910     0.63700
H500        H  0.46638587  0.45023602  0.64285118     0.08100
F501        F  0.44800252  0.47061372  0.48545067    -0.19300
F502        F  0.46351948  0.42490750  0.51374241    -0.15500
F503        F  0.49414339  0.44665681  0.97482857    -0.19000
F504        F  0.50986384  0.99376700  0.65657296    -0.22400
F505        F  0.48163263  0.04094244  0.64277613    -0.23900
F506        F  0.03763160  0.03982254  0.63344530    -0.17900
F507        F  0.40565171  0.41827174  0.70127412    -0.20400
F508        F  0.42942542  0.45886485  0.73363185    -0.21500
F509        F  0.45959958  0.42577455  0.69860377    -0.18700
F510        F  0.38416461  0.06199990  0.59316165    -0.18800
F511        F  0.40178394  0.02305338  0.55491648    -0.22600
F512        F  0.43740155  0.05775123  0.58121031    -0.24200
C513        C  0.14750552  0.01459952  0.90374829    -0.11000
C514        C  0.17870089  0.50081624  0.90574013     0.11500
C515        C  0.19174489  0.49874454  0.94056777    -0.02900
C516        C  0.16933287  0.50011048  0.96886622    -0.05600
C517        C  0.13455904  0.50885690  0.96506220    -0.16400
C518        C  0.13468564  0.03007875  0.93441851     0.02600
C519        C  0.19971647  0.49666757  0.87369561     0.12500
C520        C  0.22824685  0.49921146  0.94964414     0.63100
H521        H  0.18166034  0.49782609  0.99377461     0.12500
C522        C  0.14806302  0.06577071  0.93644505     0.55300
H523        H  0.13866525  0.02261659  0.87796250     0.08300
C524        C  0.21910646  0.46755880  0.86690879    -0.05500
C525        C  0.24356071  0.46883914  0.84101140    -0.06200
C526        C  0.24938300  0.49783590  0.82122036    -0.15800
C527        C  0.22734869  0.02487046  0.82510026    -0.01400
C528        C  0.20359660  0.02405690  0.85177063    -0.08900
C529        C  0.21554920  0.43453228  0.88599339     0.65300
H530        H  0.25875246  0.44674627  0.83675507     0.10800
C531        C  0.22819402  0.05534823  0.80125334     0.63700
H532        H  0.18826447  0.04586988  0.85620768     0.08100
F533        F  0.17180747  0.07198446  0.91159883    -0.19300
F534        F  0.16290678  0.07150661  0.96871197    -0.15500
F535        F  0.12373570  0.08898501  0.93006969    -0.19000
F536        F  0.24738855  0.50699675  0.92110660    -0.22400
F537        F  0.23848229  0.46859662  0.96278614    -0.23900
F538        F  0.23383634  0.52322603  0.97535147    -0.17900
F539        F  0.22660817  0.04546697  0.76611523    -0.20400
F540        F  0.25655102  0.07272079  0.80755530    -0.21500
F541        F  0.20202663  0.07709970  0.80705998    -0.18700
F542        F  0.24473234  0.42610322  0.90310090    -0.18800
F543        F  0.20859761  0.41000748  0.86131993    -0.22600
F544        F  0.19095106  0.43487174  0.91066768    -0.24200
C545        C  0.23423919  0.47602307  0.60967123    -0.11000
C546        C  0.20580189  0.99443610  0.61527007     0.11500
C547        C  0.20065518  0.01088293  0.64822658    -0.02900
C548        C  0.22527980  0.00858201  0.67444342    -0.05600
C549        C  0.25449738  0.48927405  0.66862708    -0.16400
C550        C  0.25903806  0.47293016  0.63574376     0.02600
C551        C  0.18272544  0.99737835  0.58452436     0.12500
C552        C  0.17009595  0.03088160  0.65784215     0.63100
H553        H  0.22194623  0.02172850  0.69933785     0.12500
C554        C  0.29045823  0.45375665  0.62758015     0.55300
H555        H  0.23747222  0.46424715  0.58403856     0.08300
C556        C  0.17595162  0.02740532  0.56646270    -0.05500
C557        C  0.15001110  0.02806084  0.54115939    -0.06200
C558        C  0.13136215  0.50012495  0.53063645    -0.15800
C559        C  0.14976923  0.46920235  0.54006637    -0.01400
C560        C  0.16974796  0.46880425  0.57068622    -0.08900
C561        C  0.19806296  0.05738835  0.56951830     0.65300
H562        H  0.14876806  0.04851905  0.52359999     0.10800
C563        C  0.16080323  0.44058760  0.51539707     0.63700
H564        H  0.17935713  0.44523938  0.58090095     0.08100
F565        F  0.29092781  0.44249940  0.59283022    -0.19300
F566        F  0.29361934  0.42637159  0.64959188    -0.15500
F567        F  0.31699405  0.47413280  0.63278092    -0.19000
F568        F  0.15652827  0.01720462  0.68770577    -0.22400
F569        F  0.14650053  0.03142830  0.63150351    -0.23900
F570        F  0.17839680  0.06343795  0.66528258    -0.17900
F571        F  0.19334145  0.44428244  0.50686495    -0.20400
F572        F  0.14317814  0.43899291  0.48433527    -0.21500
F573        F  0.15986505  0.41020001  0.53242689    -0.18700
F574        F  0.20829225  0.06614081  0.53609655    -0.18800
F575        F  0.22586704  0.05143186  0.58998334    -0.22600
F576        F  0.18131144  0.08393318  0.58433334    -0.24200
C577        C  0.10821193  0.00464974  0.99877971    -0.01700
O578        O  0.36103953  0.96089053  0.21522775    -0.72100
O579        O  0.29017319  0.96435514  0.28805485    -0.73100
O580        O  0.29164672  0.95961176  0.21291766    -0.61700
O581        O  0.36054691  0.96682905  0.28974580    -0.70100
O582        O  0.35864878  0.52459335  0.28366462    -0.69700
O583        O  0.28891270  0.51648677  0.20919266    -0.60900
O584        O  0.28862800  0.52146565  0.28389870    -0.73400
O585        O  0.35816698  0.51823972  0.20919598    -0.72200
Cu586      Cu  0.32592970  0.96098985  0.25179819     1.04600
Cu587      Cu  0.32347732  0.52206502  0.24642962     1.04300
C588        C  0.37081169  0.98767015  0.20110195     0.94100
C589        C  0.27748899  0.99232418  0.29762011     0.93200
C590        C  0.27954533  0.98652363  0.19966385     0.85400
C591        C  0.37144961  0.99548429  0.29836596     0.92000
C592        C  0.04723016  0.00188591  0.00271930    -0.01700
C593        C  0.07260340  0.53458791  0.50200309    -0.01700
O594        O  0.09424993  0.78750514  0.21758576    -0.72100
O595        O  0.09370088  0.71264457  0.28916846    -0.73100
O596        O  0.09848060  0.71670135  0.21520657    -0.61700
O597        O  0.09138720  0.78366143  0.29282817    -0.70100
O598        O  0.03728377  0.78373192  0.28895293    -0.69700
O599        O  0.04428226  0.71504227  0.21031487    -0.60900
O600        O  0.03985628  0.71207780  0.28476400    -0.73400
O601        O  0.04028747  0.78625498  0.21322270    -0.72200
Cu602      Cu  0.09624953  0.75030586  0.25387410     1.04600
Cu603      Cu  0.03848213  0.74934406  0.24921104     1.04300
C604        C  0.06732617  0.79840955  0.20358231     0.94100
C605        C  0.06659546  0.69968756  0.29752325     0.93200
C606        C  0.07276791  0.70482433  0.20105909     0.85400
C607        C  0.06361964  0.79452009  0.30330622     0.91600
C608        C  0.07961415  0.97369337  0.00271008    -0.01700
C609        C  0.04635682  0.87171888  0.36025591    -0.11000
C610        C  0.07005925  0.86742990  0.38730801     0.11500
C611        C  0.08898655  0.83749699  0.38866197    -0.02900
C612        C  0.08575075  0.81434873  0.36075597    -0.05600
C613        C  0.06301495  0.81925008  0.33276358    -0.16400
C614        C  0.04236477  0.84813005  0.33283106     0.02600
C615        C  0.07298875  0.89392602  0.41508239     0.12500
C616        C  0.11145485  0.82940970  0.42010283     0.63100
H617        H  0.10075796  0.79176021  0.36084012     0.12500
C618        C  0.01698557  0.85471646  0.30370904     0.55300
H619        H  0.03086016  0.89380761  0.36077793     0.08300
C620        C  0.09288184  0.92158546  0.41177083    -0.05500
C621        C  0.09324098  0.94615027  0.43928387    -0.06200
C622        C  0.07410057  0.94500824  0.47107678    -0.15800
C623        C  0.05425041  0.91449422  0.47284885    -0.01400
C624        C  0.05428114  0.89115795  0.44473831    -0.08900
C625        C  0.11233087  0.92490460  0.37786754     0.65300
H626        H  0.10733954  0.96711207  0.43408879     0.10800
C627        C  0.03484230  0.89956621  0.50328186     0.63700
H628        H  0.03981382  0.86880452  0.44616009     0.08100
F629        F  0.00099242  0.88522351  0.30803657    -0.19300
F630        F  0.99365439  0.83028284  0.30407287    -0.15500
F631        F  0.03196720  0.85477098  0.27107728    -0.19000
F632        F  0.09309900  0.82721368  0.45043738    -0.22400
F633        F  0.13430963  0.85395860  0.42484870    -0.23900
F634        F  0.12812725  0.79930853  0.41561785    -0.17900
F635        F  0.00505701  0.88829285  0.49067533    -0.20400
F636        F  0.02997268  0.92165124  0.03051663    -0.21500
F637        F  0.05104592  0.87131098  0.51557998    -0.18700
F638        F  0.13120615  0.95253458  0.37795630    -0.18800
F639        F  0.09137371  0.92720197  0.34883712    -0.22600
F640        F  0.13292559  0.89750251  0.37343193    -0.24200
C641        C  0.04953296  0.85406718  0.12221281    -0.11000
C642        C  0.07566734  0.87612122  0.12454285     0.11500
C643        C  0.09748603  0.87389814  0.15413118    -0.02900
C644        C  0.09365795  0.84815166  0.17892195    -0.05600
C645        C  0.06802805  0.82547210  0.17633941    -0.16400
C646        C  0.04491553  0.82897751  0.14781227     0.02600
C647        C  0.07968359  0.90085971  0.09525181     0.12500
C648        C  0.12401925  0.89921820  0.16051143     0.63100
H649        H  0.11050174  0.84596362  0.20126426     0.12500
C650        C  0.01553982  0.80657930  0.14395247     0.55300
H651        H  0.03271993  0.85673804  0.09988086     0.08300
C652        C  0.09734312  0.89329616  0.06454671    -0.05500
C653        C  0.09830867  0.91766649  0.03730028    -0.06200
C654        C  0.08575899  0.95144817  0.04009466    -0.15800
C655        C  0.07708479  0.95904083  0.07675552    -0.01400
C656        C  0.06617289  0.93282191  0.09848588    -0.08900
C657        C  0.11224676  0.85843754  0.05921181     0.65300
H658        H  0.10756587  0.90866953  0.01256228     0.10800
C659        C  0.09529935  0.98319975  0.10142826     0.63700
H660        H  0.05375127  0.93851427  0.12303975     0.08100
F661        F  0.02553194  0.77344673  0.14411513    -0.19300
F662        F  0.99833209  0.81239033  0.11259231    -0.15500
F663        F  0.99439376  0.81251166  0.17163969    -0.19000
F664        F  0.10956793  0.93009864  0.16648806    -0.22400
F665        F  0.14419992  0.90085970  0.13156762    -0.23900
F666        F  0.14337280  0.89134614  0.18990188    -0.17900
F667        F  0.07740893  0.99033807  0.13135871    -0.20400
F668        F  0.10216453  0.01314786  0.08647231    -0.21500
F669        F  0.12374042  0.96819694  0.11367068    -0.18700
F670        F  0.12761498  0.85509996  0.02693921    -0.18800
F671        F  0.08815160  0.83481924  0.06041198    -0.22600
F672        F  0.13508873  0.85151973  0.08569506    -0.24200
C673        C  0.05184072  0.60976909  0.43253964    -0.11000
C674        C  0.05722281  0.59374756  0.40067071     0.11500
C675        C  0.06311853  0.55932307  0.40077669    -0.02900
C676        C  0.06711620  0.54300566  0.43378371    -0.05600
C677        C  0.06384700  0.55820094  0.46755867    -0.16400
C678        C  0.05053565  0.59301772  0.46538271     0.02600
C679        C  0.05819366  0.61517709  0.36853711     0.12500
C680        C  0.06612598  0.54030243  0.36614159     0.63100
H681        H  0.07466833  0.51746868  0.43318306     0.12500
C682        C  0.03407969  0.61582824  0.49345540     0.55300
H683        H  0.04817034  0.63655313  0.43086939     0.08300
C684        C  0.03018200  0.63309617  0.35597628    -0.05500
C685        C  0.03431001  0.66012646  0.33298342    -0.06200
C686        C  0.06537688  0.67002469  0.32168785    -0.15800
C687        C  0.09342896  0.65096266  0.33322759    -0.01400
C688        C  0.08909656  0.62402743  0.35649989    -0.08900
C689        C  0.99553198  0.62579774  0.36722370     0.65300
H690        H  0.01264221  0.67405299  0.32431848     0.10800
C691        C  0.12801451  0.65889683  0.32215420     0.63700
H692        H  0.11024201  0.61057899  0.36705463     0.08100
F693        F  0.01907158  0.64409380  0.47888598    -0.19300
F694        F  0.05573729  0.62763537  0.51814502    -0.15500
F695        F  0.01095445  0.59947893  0.01043290    -0.19000
F696        F  0.09183655  0.55209084  0.34680636    -0.22400
F697        F  0.03753203  0.54455116  0.34648195    -0.23900
F698        F  0.07155435  0.50656513  0.37160153    -0.17900
F699        F  0.15095587  0.63621713  0.33568301    -0.20400
F700        F  0.13627119  0.69013053  0.33461540    -0.21500
F701        F  0.13008601  0.65791180  0.28559601    -0.18700
F702        F  0.97551964  0.62327391  0.33746410    -0.18800
F703        F  0.98401798  0.65178644  0.38810701    -0.22600
F704        F  0.99332393  0.59640695  0.38599616    -0.24200
C705        C  0.08412532  0.65724502  0.11525182    -0.11000
C706        C  0.08284226  0.62427046  0.12733929     0.11500
C707        C  0.08061119  0.61800539  0.16412789    -0.02900
C708        C  0.07604556  0.64526488  0.18708534    -0.05600
C709        C  0.07645453  0.67819473  0.17472664    -0.16400
C710        C  0.08219268  0.68446262  0.13849325     0.02600
C711        C  0.08108128  0.59793590  0.09982353     0.12500
C712        C  0.08287319  0.58356238  0.18048723     0.63100
H713        H  0.07297128  0.64082320  0.21518834     0.12500
C714        C  0.08601371  0.71886274  0.12260750     0.55300
H715        H  0.08628317  0.66183430  0.08710577     0.08300
C716        C  0.05100238  0.58875660  0.08480898    -0.05500
C717        C  0.05139067  0.56742388  0.05497935    -0.06200
C718        C  0.07913107  0.55829823  0.03561018    -0.15800
C719        C  0.10626849  0.57977015  0.04575008    -0.01400
C720        C  0.10933949  0.58980062  0.08145057    -0.08900
C721        C  0.01903750  0.60463968  0.09705308     0.65300
H722        H  0.02953226  0.55929660  0.04497000     0.10800
C723        C  0.12312916  0.60526580  0.02244301     0.63700
H724        H  0.13138579  0.60192541  0.09035831     0.08100
F725        F  0.05974611  0.72574469  0.10009165    -0.19300
F726        F  0.11447101  0.71927097  0.10322588    -0.15500
F727        F  0.08782326  0.74392701  0.14767229    -0.19000
F728        F  0.09259548  0.55931648  0.15661535    -0.22400
F729        F  0.05277632  0.57546251  0.19388640    -0.23900
F730        F  0.10564885  0.58350488  0.20800258    -0.17900
F731        F  0.11591304  0.63744731  0.03388476    -0.20400
F732        F  0.11283718  0.60369942  0.98826874    -0.21500
F733        F  0.15674237  0.60216399  0.02444399    -0.18700
F734        F  0.49113579  0.58860284  0.08325137    -0.18800
F735        F  0.01769274  0.63765878  0.08664067    -0.22600
F736        F  0.01661915  0.60325329  0.13348994    -0.24200
C737        C  0.44679070  0.52527547  0.35119458    -0.11000
C738        C  0.44724899  0.99917228  0.37889191     0.11500
C739        C  0.42252200  0.97483642  0.37958968    -0.02900
C740        C  0.39891690  0.97446412  0.35229667    -0.05600
C741        C  0.39841636  0.99786089  0.32493267    -0.16400
C742        C  0.42325998  0.52462912  0.32340998     0.02600
C743        C  0.47298044  0.00196313  0.40722207     0.12500
C744        C  0.41792622  0.95179520  0.41069138     0.63100
H745        H  0.37940333  0.95664460  0.35312507     0.12500
C746        C  0.42631565  0.54826747  0.29230766     0.55300
H747        H  0.46653313  0.54282001  0.35055789     0.08300
C748        C  0.50294341  0.98508776  0.40583345    -0.05500
C749        C  0.52533598  0.98798560  0.43466132    -0.06200
C750        C  0.51985504  0.00580084  0.46734232    -0.15800
C751        C  0.48717937  0.52636076  0.46796279    -0.01400
C752        C  0.46638762  0.52620797  0.43728449    -0.08900
C753        C  0.51127362  0.96425285  0.37327974     0.65300
H754        H  0.04333611  0.97749943  0.43221894     0.10800
C755        C  0.46780448  0.54494554  0.49683482     0.63700
H756        H  0.44353439  0.54056652  0.43671317     0.08100
F757        F  0.45565759  0.56487583  0.29341725    -0.19300
F758        F  0.40121868  0.57191833  0.29292956    -0.15500
F759        F  0.42488024  0.53066016  0.26073344    -0.19000
F760        F  0.40327516  0.96989688  0.43751406    -0.22400
F761        F  0.44741366  0.93813832  0.42228373    -0.23900
F762        F  0.39777014  0.92557778  0.40199958    -0.17900
F763        F  0.46009919  0.57708712  0.48571176    -0.20400
F764        F  0.48021419  0.54573821  0.03026564    -0.21500
F765        F  0.43820048  0.52975050  0.50151797    -0.18700
F766        F  0.03601639  0.95091393  0.37924306    -0.18800
F767        F  0.50984942  0.98389547  0.34325797    -0.22600
F768        F  0.48939425  0.93869668  0.36917257    -0.24200
C769        C  0.46311622  0.97550262  0.05766114    -0.11000
C770        C  0.46985751  0.49152220  0.09128812     0.11500
C771        C  0.50054670  0.50495242  0.09788296    -0.02900
C772        C  0.52377254  0.50490545  0.07031838    -0.05600
C773        C  0.51859547  0.99132136  0.03495343    -0.16400
C774        C  0.48668383  0.97460575  0.03035743     0.02600
C775        C  0.44360751  0.49087298  0.11839146     0.12500
C776        C  0.50829925  0.51973430  0.13415074     0.63100
H777        H  0.04738324  0.51396055  0.07652933     0.12500
C778        C  0.47278697  0.95411135  0.99962090     0.55300
H779        H  0.43945854  0.96414893  0.05362740     0.08300
C780        C  0.41556408  0.51231924  0.11681404    -0.05500
C781        C  0.39299881  0.51145092  0.14448267    -0.06200
C782        C  0.39595107  0.98629855  0.17294893    -0.15800
C783        C  0.42315728  0.96356072  0.17318668    -0.01400
C784        C  0.44588278  0.96508133  0.14544873    -0.08900
C785        C  0.40865122  0.53517065  0.08556696     0.65300
H786        H  0.37157035  0.52780375  0.14372133     0.10800
C787        C  0.42886076  0.93839105  0.20282332     0.63700
H788        H  0.46688490  0.94816225  0.14513647     0.08100
F789        F  0.44654218  0.97096739  0.98439072    -0.19300
F790        F  0.46061270  0.92460635  0.01251260    -0.15500
F791        F  0.49406623  0.94737929  0.47252920    -0.19000
F792        F  0.51190976  0.49452178  0.15889118    -0.22400
F793        F  0.48343343  0.54138334  0.14455368    -0.23900
F794        F  0.03767743  0.53785562  0.13268509    -0.17900
F795        F  0.40443743  0.91507077  0.20203981    -0.20400
F796        F  0.42901525  0.95454961  0.23529679    -0.21500
F797        F  0.45849326  0.92135526  0.19957961    -0.18700
F798        F  0.38146356  0.55569070  0.09075607    -0.18800
F799        F  0.40267341  0.51608734  0.05575741    -0.22600
F800        F  0.43502718  0.55525708  0.08004250    -0.24200
C801        C  0.14541102  0.51227886  0.40264936    -0.11000
C802        C  0.17823863  0.99718341  0.40666462     0.11500
C803        C  0.19133175  0.99702668  0.44154190    -0.02900
C804        C  0.16908810  0.00139060  0.46973282    -0.05600
C805        C  0.13429212  0.00946157  0.46511775    -0.16400
C806        C  0.13219984  0.52834416  0.43298964     0.02600
C807        C  0.19961567  0.99236817  0.37488680     0.12500
C808        C  0.22808345  0.99753601  0.44904590     0.63100
H809        H  0.18105373  0.00092463  0.49486008     0.12500
C810        C  0.14575381  0.56394623  0.43467354     0.55300
H811        H  0.13766555  0.52086885  0.37666087     0.08300
C812        C  0.21890552  0.96311510  0.36846247    -0.05500
C813        C  0.24419172  0.96442491  0.34353409    -0.06200
C814        C  0.24946950  0.99295840  0.32286739    -0.15800
C815        C  0.22949344  0.52440030  0.32885446    -0.01400
C816        C  0.20487775  0.52282405  0.35458347    -0.08900
C817        C  0.21250447  0.92928175  0.38466104     0.65300
H818        H  0.25980826  0.94251920  0.33999480     0.10800
C819        C  0.23383903  0.55716975  0.30942806     0.63700
H820        H  0.19066641  0.54499387  0.36027607     0.08100
F821        F  0.17057759  0.56940540  0.41101910    -0.19300
F822        F  0.15952052  0.57027687  0.46733326    -0.15500
F823        F  0.12181568  0.58714046  0.42653601    -0.19000
F824        F  0.24254835  0.02024298  0.42700685    -0.22400
F825        F  0.24202905  0.96642324  0.44369571    -0.23900
F826        F  0.23518544  0.00701178  0.48361822    -0.17900
F827        F  0.23241185  0.55186813  0.27317104    -0.20400
F828        F  0.26357773  0.57066222  0.31895358    -0.21500
F829        F  0.20959318  0.58050161  0.31746978    -0.18700
F830        F  0.24091197  0.91630142  0.40010679    -0.18800
F831        F  0.20278031  0.90781613  0.35791734    -0.22600
F832        F  0.18840127  0.93032815  0.40991645    -0.24200
C833        C  0.23672337  0.97474639  0.11095945    -0.11000
C834        C  0.20691857  0.49142100  0.11548986     0.11500
C835        C  0.20166332  0.50791872  0.14839250    -0.02900
C836        C  0.22593520  0.50524479  0.17493774    -0.05600
C837        C  0.25448529  0.98559458  0.17133807    -0.16400
C838        C  0.26050741  0.97080100  0.13795357     0.02600
C839        C  0.18399864  0.49468368  0.08458953     0.12500
C840        C  0.17153406  0.52882707  0.15743854     0.63100
H841        H  0.22241698  0.51832440  0.19987173     0.12500
C842        C  0.29227047  0.95196261  0.13050208     0.55300
H843        H  0.24095770  0.96397626  0.08501142     0.08300
C844        C  0.17804207  0.52472809  0.06627560    -0.05500
C845        C  0.15195860  0.52597199  0.04108845    -0.06200
C846        C  0.13467476  0.99906523  0.03084238    -0.15800
C847        C  0.15270838  0.96790712  0.04026822    -0.01400
C848        C  0.17228426  0.96721174  0.07115662    -0.08900
C849        C  0.20106149  0.55402286  0.06916894     0.65300
H850        H  0.15079179  0.54661884  0.02380043     0.10800
C851        C  0.16421030  0.93953671  0.01559765     0.63700
H852        H  0.18148589  0.94355310  0.08156212     0.08100
F853        F  0.29426751  0.94226125  0.09532261    -0.19300
F854        F  0.29438353  0.92362541  0.15123408    -0.15500
F855        F  0.31859959  0.97198240  0.13813344    -0.19000
F856        F  0.15790357  0.51662370  0.18799780    -0.22400
F857        F  0.14774929  0.52884453  0.13129695    -0.23900
F858        F  0.18056916  0.56142384  0.16340175    -0.17900
F859        F  0.19695798  0.94316669  0.00820049    -0.20400
F860        F  0.14746682  0.93839399  0.98399753    -0.21500
F861        F  0.16275613  0.90897503  0.03218382    -0.18700
F862        F  0.21028825  0.56345742  0.03560386    -0.18800
F863        F  0.22948853  0.54660210  0.08810712    -0.22600
F864        F  0.18562060  0.58061227  0.08554264    -0.24200
C865        C  0.10612658  0.00486830  0.49770341    -0.01700
O866        O  0.36035937  0.96435298  0.71279447    -0.72100
O867        O  0.28957753  0.96784628  0.78609836    -0.73100
O868        O  0.29100091  0.96368457  0.71112706    -0.61700
O869        O  0.36012223  0.96866987  0.78799452    -0.70100
O870        O  0.35801233  0.52572195  0.78299799    -0.69700
O871        O  0.28940117  0.51845975  0.70749827    -0.60900
O872        O  0.28817142  0.52351266  0.78219745    -0.73400
O873        O  0.35854309  0.51922100  0.70841009    -0.72200
Cu874      Cu  0.32534735  0.96422699  0.74975173     1.04600
Cu875      Cu  0.32345356  0.52356863  0.74518737     1.04300
C876        C  0.37049867  0.99123685  0.69910829     0.94100
C877        C  0.27703639  0.99594763  0.79556557     0.93200
C878        C  0.27929953  0.99064504  0.69767733     0.85400
C879        C  0.37123091  0.99697109  0.79753399     0.92000
C880        C  0.04507588  0.00246903  0.50331294    -0.01700
C881        C  0.07459254  0.53310883  0.00183477    -0.01700
O882        O  0.10028470  0.78983953  0.71930647    -0.72100
O883        O  0.09942398  0.71274693  0.78990943    -0.73100
O884        O  0.10447158  0.71891965  0.71528112    -0.61700
O885        O  0.09777922  0.78382172  0.79493544    -0.70100
O886        O  0.04366076  0.78374230  0.79113666    -0.69700
O887        O  0.05023938  0.71776786  0.71054293    -0.60900
O888        O  0.04558535  0.71274856  0.78502012    -0.73400
O889        O  0.04633371  0.78842899  0.71564422    -0.72200
Cu890      Cu  0.10237648  0.75148711  0.75505318     1.04600
Cu891      Cu  0.04460216  0.75074515  0.75049829     1.04300
C892        C  0.07314715  0.80074044  0.70563452     0.94100
C893        C  0.07203817  0.70000667  0.79800700     0.93200
C894        C  0.07861065  0.70778878  0.70071476     0.85400
C895        C  0.06997829  0.79421138  0.80574176     0.91600
C896        C  0.07738771  0.97404168  0.50211663    -0.01700
C897        C  0.05166163  0.87081929  0.86234587    -0.11000
C898        C  0.07541839  0.86699815  0.88926011     0.11500
C899        C  0.09471436  0.83739193  0.89113396    -0.02900
C900        C  0.09193106  0.81402848  0.86338678    -0.05600
C901        C  0.06909695  0.81855171  0.83536587    -0.16400
C902        C  0.04788560  0.84698610  0.83531996     0.02600
C903        C  0.07757586  0.89354930  0.91664527     0.12500
C904        C  0.11708985  0.83011361  0.92289776     0.63100
H905        H  0.10735093  0.79172320  0.86357963     0.12500
C906        C  0.02184965  0.85270065  0.80669466     0.55300
H907        H  0.03591373  0.89273032  0.86280296     0.08300
C908        C  0.09720248  0.92132974  0.91329127    -0.05500
C909        C  0.09691488  0.94588924  0.94061446    -0.06200
C910        C  0.07687163  0.94492367  0.97171800    -0.15800
C911        C  0.05668870  0.91469878  0.97312111    -0.01400
C912        C  0.05773052  0.89106764  0.94545104    -0.08900
C913        C  0.11692317  0.92502535  0.87952721     0.65300
H914        H  0.11068693  0.96701697  0.93529280     0.10800
C915        C  0.03612479  0.90030688  0.00293967     0.63700
H916        H  0.04315383  0.86875785  0.94658206     0.08100
F917        F  0.00580721  0.88323405  0.81051604    -0.19300
F918        F  0.99870481  0.82815809  0.80857296    -0.15500
F919        F  0.03600850  0.85197144  0.77362303    -0.19000
F920        F  0.09872891  0.82912421  0.95333995    -0.22400
F921        F  0.14012900  0.85461357  0.92673738    -0.23900
F922        F  0.13348811  0.79973847  0.91955048    -0.17900
F923        F  0.00657142  0.88935765  0.98938779    -0.20400
F924        F  0.02920437  0.92065332  0.53123285    -0.21500
F925        F  0.05154022  0.87192070  0.01603831    -0.18700
F926        F  0.13452452  0.95363954  0.87946063    -0.18800
F927        F  0.09643212  0.92596115  0.85004566    -0.22600
F928        F  0.13859415  0.89841257  0.87576788    -0.24200
C929        C  0.05153171  0.85589251  0.62471007    -0.11000
C930        C  0.07760202  0.87794952  0.62518873     0.11500
C931        C  0.10113376  0.87586827  0.65318691    -0.02900
C932        C  0.09854242  0.85048710  0.67877312    -0.05600
C933        C  0.07292602  0.82761914  0.67794944    -0.16400
C934        C  0.04862027  0.83064558  0.65041901     0.02600
C935        C  0.08000992  0.90215836  0.59522911     0.12500
C936        C  0.12812263  0.90111464  0.65710026     0.63100
H937        H  0.11638975  0.84870841  0.70022606     0.12500
C938        C  0.01999614  0.80716189  0.64711813     0.55300
H939        H  0.03362169  0.85840439  0.60337188     0.08300
C940        C  0.09657936  0.89430834  0.56389236    -0.05500
C941        C  0.09686694  0.91850812  0.53652048    -0.06200
C942        C  0.08417171  0.95215601  0.53943446    -0.15800
C943        C  0.07594502  0.96005363  0.57616889    -0.01400
C944        C  0.06598544  0.93386860  0.59845658    -0.08900
C945        C  0.11106200  0.85933809  0.55809512     0.65300
H946        H  0.10572871  0.90950873  0.51162935     0.10800
C947        C  0.09409543  0.98474782  0.60029053     0.63700
H948        H  0.05409966  0.93954393  0.62332998     0.08100
F949        F  0.03120206  0.77446028  0.64678601    -0.19300
F950        F  0.00201061  0.81242087  0.61614228    -0.15500
F951        F  0.99915130  0.81201066  0.67525343    -0.19000
F952        F  0.11446264  0.93159927  0.66655791    -0.22400
F953        F  0.14469816  0.90438796  0.62570843    -0.23900
F954        F  0.15081520  0.89189571  0.68307516    -0.17900
F955        F  0.07664812  0.99173065  0.63056527    -0.20400
F956        F  0.10020036  0.01481961  0.58512665    -0.21500
F957        F  0.12292890  0.97026207  0.61203354    -0.18700
F958        F  0.12380628  0.85534247  0.52453516    -0.18800
F959        F  0.08722074  0.83575059  0.56207437    -0.22600
F960        F  0.13586741  0.85296407  0.58256657    -0.24200
C961        C  0.05324114  0.60952519  0.93351836    -0.11000
C962        C  0.05873522  0.59399895  0.90133555     0.11500
C963        C  0.06395686  0.55947095  0.90092845    -0.02900
C964        C  0.06816951  0.54267009  0.93367627    -0.05600
C965        C  0.06562221  0.55741638  0.96780285    -0.16400
C966        C  0.05241231  0.59232986  0.96625695     0.02600
C967        C  0.06082455  0.61587844  0.86948882     0.12500
C968        C  0.06552534  0.54075389  0.86599245     0.63100
H969        H  0.07570393  0.51713379  0.93256196     0.12500
C970        C  0.03634888  0.61470468  0.99499469     0.55300
H971        H  0.04946072  0.63629960  0.93220529     0.08300
C972        C  0.03339320  0.63421112  0.85624270    -0.05500
C973        C  0.03845908  0.66147676  0.83372516    -0.06200
C974        C  0.06986883  0.67035638  0.82230723    -0.15800
C975        C  0.09714202  0.64995367  0.83332999    -0.01400
C976        C  0.09206506  0.62373650  0.85743260    -0.08900
C977        C  0.99830423  0.62623939  0.86519714     0.65300
H978        H  0.01718967  0.67596610  0.82494244     0.10800
C979        C  0.13153873  0.65527660  0.82008938     0.63700
H980        H  0.11284078  0.60966467  0.86797768     0.08100
F981        F  0.02221332  0.64381774  0.98143471    -0.19300
F982        F  0.05809938  0.62518724  0.02025077    -0.15500
F983        F  0.00921283  0.60049536  0.50966509    -0.19000
F984        F  0.09007503  0.55287039  0.84520103    -0.22400
F985        F  0.03596020  0.54487783  0.84808756    -0.23900
F986        F  0.07159443  0.50705742  0.87087416    -0.17900
F987        F  0.15312913  0.63020729  0.83117751    -0.20400
F988        F  0.14310281  0.68523056  0.83286258    -0.21500
F989        F  0.13136531  0.65533502  0.78340874    -0.18700
F990        F  0.98027049  0.62290094  0.83409720    -0.18800
F991        F  0.98490379  0.65210401  0.88490132    -0.22600
F992        F  0.99557813  0.59695911  0.88407008    -0.24200
C993        C  0.08363485  0.66097334  0.61371586    -0.11000
C994        C  0.08248885  0.62798899  0.62581198     0.11500
C995        C  0.08356491  0.62148178  0.66265983    -0.02900
C996        C  0.08206705  0.64862174  0.68611469    -0.05600
C997        C  0.08168964  0.68157581  0.67388634    -0.16400
C998        C  0.08426461  0.68804253  0.63718931     0.02600
C999        C  0.07987468  0.60173719  0.59839195     0.12500
C1000       C  0.08628666  0.58696640  0.67874391     0.63100
H1001       H  0.08143898  0.64402519  0.71443437     0.12500
C1002       C  0.08770655  0.72237576  0.62110184     0.55300
H1003       H  0.08390697  0.66562830  0.58541689     0.08300
C1004       C  0.04955590  0.59206976  0.58451136    -0.05500
C1005       C  0.04947256  0.57015397  0.55505906    -0.06200
C1006       C  0.07697780  0.56073711  0.53512745    -0.15800
C1007       C  0.10396059  0.58285650  0.54398900    -0.01400
C1008       C  0.10759607  0.59407174  0.57914920    -0.08900
C1009       C  0.01790501  0.60747247  0.59834089     0.65300
H1010       H  0.02711531  0.56157605  0.54598638     0.10800
C1011       C  0.12108062  0.60703784  0.51947028     0.63700
H1012       H  0.12937126  0.60722344  0.58696485     0.08100
F1013       F  0.06035546  0.72974928  0.60030976    -0.19300
F1014       F  0.11497426  0.72235525  0.59980604    -0.15500
F1015       F  0.09141544  0.74722347  0.64615590    -0.19000
F1016       F  0.09093377  0.56221678  0.65378612    -0.22400
F1017       F  0.05810737  0.58063927  0.69714588    -0.23900
F1018       F  0.11268926  0.58558450  0.70213143    -0.17900
F1019       F  0.11372230  0.63975536  0.52892064    -0.20400
F1020       F  0.11131904  0.60357443  0.48533148    -0.21500
F1021       F  0.15466750  0.60404806  0.52223230    -0.18700
F1022       F  0.49315651  0.59528785  0.58054337    -0.18800
F1023       F  0.01679381  0.64118020  0.59071379    -0.22600
F1024       F  0.01611255  0.60361493  0.63464147    -0.24200
C1025       C  0.44573046  0.52503459  0.85115764    -0.11000
C1026       C  0.44760576  0.99796768  0.87857975     0.11500
C1027       C  0.42262916  0.97384472  0.87876249    -0.02900
C1028       C  0.39839927  0.97469117  0.85183482    -0.05600
C1029       C  0.39817775  0.99839364  0.82459983    -0.16400
C1030       C  0.42276315  0.52410517  0.82290800     0.02600
C1031       C  0.47311751  0.00070557  0.90747164     0.12500
C1032       C  0.41885209  0.94904526  0.90856131     0.63100
H1033       H  0.37859715  0.95718870  0.85258738     0.12500
C1034       C  0.42802274  0.54532738  0.79029512     0.55300
H1035       H  0.46642025  0.54134120  0.84992389     0.08300
C1036       C  0.50338589  0.98425526  0.90643378    -0.05500
C1037       C  0.52543201  0.98710886  0.93566345    -0.06200
C1038       C  0.51944297  0.00455388  0.96841767    -0.15800
C1039       C  0.48558873  0.52681389  0.96856475    -0.01400
C1040       C  0.46479848  0.52728352  0.93789119    -0.08900
C1041       C  0.51242634  0.96390086  0.87384696     0.65300
H1042       H  0.04934719  0.97741957  0.92985566     0.10800
C1043       C  0.46651398  0.54554186  0.99749758     0.63700
H1044       H  0.44237597  0.54237698  0.93726962     0.08100
F1045       F  0.45790206  0.56092854  0.79166717    -0.19300
F1046       F  0.40379243  0.56979769  0.78764791    -0.15500
F1047       F  0.42736807  0.52553526  0.76021332    -0.19000
F1048       F  0.40174312  0.96433569  0.93562993    -0.22400
F1049       F  0.44877041  0.93743907  0.92125639    -0.23900
F1050       F  0.40159561  0.92154966  0.89717980    -0.17900
F1051       F  0.46013093  0.57806876  0.98688292    -0.20400
F1052       F  0.48198235  0.54645852  0.52932195    -0.21500
F1053       F  0.43623214  0.53147442  0.00132590    -0.18700
F1054       F  0.04440396  0.95246074  0.87540447    -0.18800
F1055       F  0.51001834  0.98347136  0.84382194    -0.22600
F1056       F  0.49162330  0.93738602  0.86996600    -0.24200
C1057       C  0.46270998  0.97855397  0.55563203    -0.11000
C1058       C  0.46953797  0.49249379  0.58960098     0.11500
C1059       C  0.50013540  0.50601314  0.59663208    -0.02900
C1060       C  0.52400755  0.50562354  0.56965038    -0.05600
C1061       C  0.51895194  0.99283647  0.53358042    -0.16400
C1062       C  0.48677224  0.97656189  0.52888625     0.02600
C1063       C  0.44303349  0.49157104  0.61652025     0.12500
C1064       C  0.50695106  0.52140951  0.63276609     0.63100
H1065       H  0.04469401  0.51721728  0.57746625     0.12500
C1066       C  0.47282418  0.95560787  0.49862282     0.55300
H1067       H  0.43871444  0.96798626  0.55126205     0.08300
C1068       C  0.41582732  0.51413251  0.61611834    -0.05500
C1069       C  0.39322238  0.51293485  0.64377301    -0.06200
C1070       C  0.39557476  0.99004396  0.67085328    -0.15800
C1071       C  0.42216093  0.96661373  0.67052689    -0.01400
C1072       C  0.44459495  0.96763206  0.64253484    -0.08900
C1073       C  0.40977905  0.53856603  0.58608185     0.65300
H1074       H  0.37222233  0.52986883  0.64359215     0.10800
C1075       C  0.42774564  0.94144217  0.70012157     0.63700
H1076       H  0.46493072  0.94990365  0.64166147     0.08100
F1077       F  0.44629614  0.97218098  0.48383773    -0.19300
F1078       F  0.46113667  0.92608324  0.51205086    -0.15500
F1079       F  0.49442803  0.94579240  0.97392892    -0.19000
F1080       F  0.50823126  0.49681856  0.65835764    -0.22400
F1081       F  0.48249782  0.54436396  0.64108591    -0.23900
F1082       F  0.03452696  0.54024789  0.63409307    -0.17900
F1083       F  0.40344716  0.91799984  0.69902095    -0.20400
F1084       F  0.42754044  0.95757229  0.73261227    -0.21500
F1085       F  0.45754495  0.92467911  0.69716774    -0.18700
F1086       F  0.38442343  0.56093498  0.59321852    -0.18800
F1087       F  0.40149114  0.52107452  0.55579674    -0.22600
F1088       F  0.43745430  0.55673481  0.58028112    -0.24200
C1089       C  0.14635059  0.51359736  0.90274260    -0.11000
C1090       C  0.17953983  0.00097611  0.90642127     0.11500
C1091       C  0.19269292  0.99830669  0.94115777    -0.02900
C1092       C  0.17047030  0.00011055  0.96960146    -0.05600
C1093       C  0.13594829  0.00971788  0.96599500    -0.16400
C1094       C  0.13297229  0.52891022  0.93324117     0.02600
C1095       C  0.20013871  0.99641837  0.87410119     0.12500
C1096       C  0.22919875  0.99786715  0.95006953     0.63100
H1097       H  0.18278699  0.99771671  0.99449985     0.12500
C1098       C  0.14573164  0.56485722  0.93517148     0.55300
H1099       H  0.13740985  0.52130404  0.87684106     0.08300
C1100       C  0.21932635  0.96715651  0.86729735    -0.05500
C1101       C  0.24372034  0.96825289  0.84138192    -0.06200
C1102       C  0.24918050  0.99695557  0.82109019    -0.15800
C1103       C  0.22828695  0.52617178  0.82634234    -0.01400
C1104       C  0.20380697  0.52474740  0.85219552    -0.08900
C1105       C  0.21567245  0.93412183  0.88628065     0.65300
H1106       H  0.25911071  0.94624146  0.83745433     0.10800
C1107       C  0.23115263  0.55810902  0.80507672     0.63700
H1108       H  0.18847678  0.54648200  0.85685440     0.08100
F1109       F  0.16919476  0.57160507  0.91021192    -0.19300
F1110       F  0.16062203  0.57079948  0.96736387    -0.15500
F1111       F  0.12105534  0.58764388  0.92896793    -0.19000
F1112       F  0.24843406  0.00501853  0.92142472    -0.22400
F1113       F  0.23870111  0.96707783  0.96333858    -0.23900
F1114       F  0.23541417  0.02184720  0.97562729    -0.17900
F1115       F  0.22949282  0.55095161  0.76920637    -0.20400
F1116       F  0.26043414  0.57319402  0.81328672    -0.21500
F1117       F  0.20621361  0.58091153  0.81232706    -0.18700
F1118       F  0.24494335  0.92534592  0.90299323    -0.18800
F1119       F  0.20828196  0.90979434  0.86152074    -0.22600
F1120       F  0.19135938  0.93458193  0.91125855    -0.24200
C1121       C  0.23447092  0.97495940  0.61063023    -0.11000
C1122       C  0.20546731  0.49505584  0.61539833     0.11500
C1123       C  0.20119882  0.51157532  0.64844015    -0.02900
C1124       C  0.22607052  0.50853341  0.67425096    -0.05600
C1125       C  0.25397908  0.98956297  0.66952105    -0.16400
C1126       C  0.25861642  0.97192170  0.63739954     0.02600
C1127       C  0.18169769  0.49802584  0.58530884     0.12500
C1128       C  0.17182594  0.53334802  0.65803606     0.63100
H1129       H  0.22328726  0.52154159  0.69933227     0.12500
C1130       C  0.28946269  0.95117609  0.63083475     0.55300
H1131       H  0.23811908  0.96264723  0.58535475     0.08300
C1132       C  0.17520721  0.52784550  0.56678330    -0.05500
C1133       C  0.14933566  0.52832323  0.54136338    -0.06200
C1134       C  0.13245507  0.99971811  0.52988534    -0.15800
C1135       C  0.15128403  0.96885433  0.53865863    -0.01400
C1136       C  0.17138956  0.96821288  0.56916529    -0.08900
C1137       C  0.19764659  0.55764834  0.56937308     0.65300
H1138       H  0.14807478  0.54858221  0.52366560     0.10800
C1139       C  0.16234866  0.94063540  0.51350789     0.63700
H1140       H  0.18123479  0.94459037  0.57895371     0.08100
F1141       F  0.29009462  0.93831794  0.59673579    -0.19300
F1142       F  0.29121772  0.92467893  0.65418114    -0.15500
F1143       F  0.31667867  0.97068906  0.63559391    -0.19000
F1144       F  0.16003320  0.52354578  0.69049205    -0.22400
F1145       F  0.14653450  0.53165627  0.63368718    -0.23900
F1146       F  0.18138723  0.56614323  0.66066988    -0.17900
F1147       F  0.19486261  0.94461208  0.50497238    -0.20400
F1148       F  0.14472848  0.93948505  0.48243036    -0.21500
F1149       F  0.16145631  0.90996980  0.53003856    -0.18700
F1150       F  0.20750717  0.56621998  0.53576849    -0.18800
F1151       F  0.22568986  0.55152053  0.58938468    -0.22600
F1152       F  0.18141365  0.58440693  0.58440280    -0.24200
C1153       C  0.60503278  0.50457981  0.99653316    -0.01700
O1154       O  0.86217209  0.46570059  0.21371683    -0.72100
O1155       O  0.78883859  0.46758598  0.28375366    -0.73100
O1156       O  0.79285865  0.46388942  0.20830484    -0.61700
O1157       O  0.85912020  0.47041710  0.28853152    -0.70100
O1158       O  0.85999866  0.02871769  0.28462205    -0.69700
O1159       O  0.79089384  0.02141759  0.20949550    -0.60900
O1160       O  0.78984148  0.02510680  0.28440338    -0.73400
O1161       O  0.86049164  0.02266547  0.20966484    -0.72200
Cu1162     Cu  0.82582636  0.46496622  0.24882375     1.04600
Cu1163     Cu  0.82523026  0.02639153  0.24701725     1.04300
C1164       C  0.87190922  0.49273747  0.20010146     0.94100
C1165       C  0.77608866  0.49539858  0.29375516     0.93200
C1166       C  0.78081270  0.49084049  0.19502599     0.85400
C1167       C  0.86973546  0.49901610  0.29781635     0.92000
C1168       C  0.54401531  0.50206561  0.00259258    -0.01700
C1169       C  0.57451072  0.03349619  0.50147316    -0.01700
O1170       O  0.59660215  0.28941819  0.21838896    -0.72100
O1171       O  0.59433793  0.21230951  0.28812613    -0.73100
O1172       O  0.59957421  0.21845343  0.21420927    -0.61700
O1173       O  0.59337594  0.28334944  0.29378591    -0.70100
O1174       O  0.53924845  0.28440776  0.28927640    -0.69700
O1175       O  0.54529943  0.21691285  0.21023907    -0.60900
O1176       O  0.54042312  0.21301439  0.28440977    -0.73400
O1177       O  0.54273267  0.28794953  0.21382778    -0.72200
Cu1178     Cu  0.59783000  0.25102723  0.25384002     1.04600
Cu1179     Cu  0.54003815  0.25071177  0.24931990     1.04300
C1180       C  0.56968926  0.30037070  0.20433240     0.94100
C1181       C  0.56699988  0.19976264  0.29654858     0.93200
C1182       C  0.57360348  0.20676948  0.20043303     0.85400
C1183       C  0.56564004  0.29444772  0.30407188     0.91600
C1184       C  0.57639118  0.47381263  0.00183367    -0.01700
C1185       C  0.54863486  0.37205573  0.35961509    -0.11000
C1186       C  0.57084104  0.36704397  0.38792144     0.11500
C1187       C  0.58888108  0.33663058  0.39041989    -0.02900
C1188       C  0.58612423  0.31339678  0.36255056    -0.05600
C1189       C  0.56485793  0.31903506  0.33340863    -0.16400
C1190       C  0.54539020  0.34866756  0.33201889     0.02600
C1191       C  0.57354241  0.39367517  0.41537971     0.12500
C1192       C  0.60983836  0.32823271  0.42296042     0.63100
H1193       H  0.60028000  0.29026475  0.36352805     0.12500
C1194       C  0.52204548  0.35617728  0.30118862     0.55300
H1195       H  0.53383613  0.39461548  0.35919631     0.08300
C1196       C  0.59398549  0.42089611  0.41221069    -0.05500
C1197       C  0.59432423  0.44556536  0.43951510    -0.06200
C1198       C  0.57482262  0.44477880  0.47103267    -0.15800
C1199       C  0.55466060  0.41448296  0.47286576    -0.01400
C1200       C  0.55439370  0.39127356  0.44470888    -0.08900
C1201       C  0.61454691  0.42336689  0.37899188     0.65300
H1202       H  0.60882008  0.46622668  0.43435446     0.10800
C1203       C  0.53536515  0.39954981  0.50344649     0.63700
H1204       H  0.53955336  0.36917323  0.44595549     0.08100
F1205       F  0.50852139  0.38806422  0.30330681    -0.19300
F1206       F  0.49673107  0.33386887  0.30120469    -0.15500
F1207       F  0.53849758  0.35360305  0.26948075    -0.19000
F1208       F  0.58994309  0.32497439  0.45199515    -0.22400
F1209       F  0.63194013  0.35312128  0.42979384    -0.23900
F1210       F  0.62733958  0.29859133  0.41869207    -0.17900
F1211       F  0.50561921  0.38795898  0.49111378    -0.20400
F1212       F  0.52810388  0.42129751  0.03263274    -0.21500
F1213       F  0.55182829  0.37145223  0.51585589    -0.18700
F1214       F  0.63289196  0.45142928  0.37872162    -0.18800
F1215       F  0.59469953  0.42427690  0.34900296    -0.22600
F1216       F  0.63564437  0.39608045  0.37662549    -0.24200
C1217       C  0.54923017  0.35665410  0.12391238    -0.11000
C1218       C  0.57567703  0.37824932  0.12481664     0.11500
C1219       C  0.59865340  0.37595607  0.15324808    -0.02900
C1220       C  0.59602944  0.34991602  0.17805217    -0.05600
C1221       C  0.56996982  0.32752314  0.17692775    -0.16400
C1222       C  0.54544385  0.33166730  0.14976467     0.02600
C1223       C  0.57895489  0.40254948  0.09513194     0.12500
C1224       C  0.62466079  0.40204633  0.15857824     0.63100
H1225       H  0.61394149  0.34752603  0.19937958     0.12500
C1226       C  0.51546618  0.30991517  0.14731854     0.55300
H1227       H  0.53153939  0.35957912  0.10241610     0.08300
C1228       C  0.59628471  0.39467386  0.06429711    -0.05500
C1229       C  0.59650173  0.41859646  0.03666557    -0.06200
C1230       C  0.58379224  0.45227803  0.03928180    -0.15800
C1231       C  0.57601260  0.46041111  0.07600111    -0.01400
C1232       C  0.56549148  0.43451807  0.09831535    -0.08900
C1233       C  0.61159888  0.35994563  0.05926674     0.65300
H1234       H  0.60512411  0.40922514  0.01182741     0.10800
C1235       C  0.59488093  0.48485401  0.09970731     0.63700
H1236       H  0.55355453  0.44050962  0.12307609     0.08100
F1237       F  0.52490753  0.27668320  0.14529836    -0.19300
F1238       F  0.49628283  0.31716425  0.11764587    -0.15500
F1239       F  0.49622745  0.31512266  0.17674045    -0.19000
F1240       F  0.60951623  0.43233374  0.16603850    -0.22400
F1241       F  0.64320767  0.40510878  0.12849759    -0.23900
F1242       F  0.64569826  0.39422203  0.18656659    -0.17900
F1243       F  0.57811827  0.49201269  0.13039556    -0.20400
F1244       F  0.60076280  0.51482257  0.08419622    -0.21500
F1245       F  0.62385525  0.47013741  0.11078723    -0.18700
F1246       F  0.62607075  0.35618156  0.02653620    -0.18800
F1247       F  0.58799100  0.33595161  0.06186613    -0.22600
F1248       F  0.63529921  0.35397148  0.08510307    -0.24200
C1249       C  0.55228661  0.10916153  0.43253132    -0.11000
C1250       C  0.55808445  0.09367968  0.40036806     0.11500
C1251       C  0.56479639  0.05935333  0.40017351    -0.02900
C1252       C  0.56903879  0.04277010  0.43307652    -0.05600
C1253       C  0.56566418  0.05747030  0.46713497    -0.16400
C1254       C  0.55185856  0.09211832  0.46538795     0.02600
C1255       C  0.55848572  0.11547896  0.36825212     0.12500
C1256       C  0.56796114  0.04055052  0.36534244     0.63100
H1257       H  0.57698826  0.01742075  0.43219211     0.12500
C1258       C  0.53598037  0.11454070  0.49422617     0.55300
H1259       H  0.54778615  0.13582311  0.43108516     0.08300
C1260       C  0.53052165  0.13418405  0.35674310    -0.05500
C1261       C  0.53459821  0.16133519  0.33374594    -0.06200
C1262       C  0.56539625  0.16977603  0.32034941    -0.15800
C1263       C  0.59292272  0.14888144  0.32939335    -0.01400
C1264       C  0.58901090  0.12301394  0.35413962    -0.08900
C1265       C  0.49596783  0.12709764  0.36851759     0.65300
H1266       H  0.51314335  0.17624195  0.32639628     0.10800
C1267       C  0.62643992  0.15329844  0.31338442     0.63700
H1268       H  0.61030660  0.10920979  0.36383740     0.08100
F1269       F  0.52083665  0.14307589  0.48050825    -0.19300
F1270       F  0.55805084  0.12588755  0.51867223    -0.15500
F1271       F  0.51004150  0.09852884  0.01392961    -0.19000
F1272       F  0.59323018  0.05277636  0.34568233    -0.22400
F1273       F  0.53913253  0.04427457  0.34598899    -0.23900
F1274       F  0.57421374  0.00693649  0.37056486    -0.17900
F1275       F  0.64819502  0.12789628  0.32313814    -0.20400
F1276       F  0.63950362  0.18304365  0.32481281    -0.21500
F1277       F  0.62379116  0.15299268  0.27675751    -0.18700
F1278       F  0.47570258  0.12439836  0.33898505    -0.18800
F1279       F  0.48464706  0.15322505  0.38931923    -0.22600
F1280       F  0.49385663  0.09781665  0.38751352    -0.24200
C1281       C  0.58326905  0.15929186  0.11446764    -0.11000
C1282       C  0.58138176  0.12635542  0.12666495     0.11500
C1283       C  0.57990913  0.12009008  0.16345929    -0.02900
C1284       C  0.57606373  0.14736603  0.18646437    -0.05600
C1285       C  0.57662146  0.18026506  0.17402990    -0.16400
C1286       C  0.58199922  0.18654861  0.13774000     0.02600
C1287       C  0.57975975  0.09978510  0.09950567     0.12500
C1288       C  0.58278374  0.08560258  0.17974474     0.63100
H1289       H  0.57356895  0.14295412  0.21465397     0.12500
C1290       C  0.58683155  0.22091570  0.12204151     0.55300
H1291       H  0.58554811  0.16376971  0.08629708     0.08300
C1292       C  0.54982376  0.08852965  0.08611759    -0.05500
C1293       C  0.55046286  0.06638483  0.05691077    -0.06200
C1294       C  0.57801574  0.05809115  0.03661321    -0.15800
C1295       C  0.60465449  0.08077223  0.04556475    -0.01400
C1296       C  0.60781925  0.09241509  0.08063255    -0.08900
C1297       C  0.51747703  0.10245199  0.09995901     0.65300
H1298       H  0.52843503  0.05749537  0.04773889     0.10800
C1299       C  0.62197936  0.10491093  0.02107431     0.63700
H1300       H  0.62955521  0.10561071  0.08864469     0.08100
F1301       F  0.56310811  0.22710202  0.09622510    -0.19300
F1302       F  0.61727091  0.22166443  0.10657821    -0.15500
F1303       F  0.58525214  0.24636301  0.14671201    -0.19000
F1304       F  0.59137290  0.06126315  0.15546658    -0.22400
F1305       F  0.55331948  0.07749235  0.19461580    -0.23900
F1306       F  0.60668600  0.08553143  0.20611651    -0.17900
F1307       F  0.61462836  0.13769290  0.03027995    -0.20400
F1308       F  0.61246876  0.10136630  0.98695551    -0.21500
F1309       F  0.65553379  0.10197611  0.02393551    -0.18700
F1310       F  0.99346808  0.08996332  0.08425895    -0.18800
F1311       F  0.51441843  0.13590129  0.09156193    -0.22600
F1312       F  0.51601562  0.09928151  0.13633431    -0.24200
C1313       C  0.94792607  0.02701810  0.35281035    -0.11000
C1314       C  0.94359347  0.50289732  0.38081205     0.11500
C1315       C  0.91654747  0.48132916  0.38302461    -0.02900
C1316       C  0.89353608  0.48062371  0.35500029    -0.05600
C1317       C  0.89586133  0.50131652  0.32545060    -0.16400
C1318       C  0.92478219  0.02701039  0.32479612     0.02600
C1319       C  0.96949593  0.50500289  0.40930244     0.12500
C1320       C  0.91046751  0.46059580  0.41557922     0.63100
H1321       H  0.87260597  0.46461176  0.35652241     0.12500
C1322       C  0.92957817  0.04967264  0.29324697     0.55300
H1323       H  0.96888128  0.04298446  0.35179768     0.08300
C1324       C  0.99891589  0.48702176  0.40810189    -0.05500
C1325       C  0.02169228  0.48976256  0.43659883    -0.06200
C1326       C  0.01701273  0.50759414  0.46928496    -0.15800
C1327       C  0.98637863  0.02730689  0.47035204    -0.01400
C1328       C  0.96587479  0.02819959  0.43958230    -0.08900
C1329       C  0.00600249  0.46461030  0.37644049     0.65300
H1330       H  0.54479619  0.47665171  0.43073502     0.10800
C1331       C  0.96647494  0.04474106  0.49971311     0.63700
H1332       H  0.94332449  0.04305495  0.43905066     0.08100
F1333       F  0.95949693  0.06515914  0.29489736    -0.19300
F1334       F  0.90532890  0.07422604  0.29244373    -0.15500
F1335       F  0.92842205  0.03138448  0.26215621    -0.19000
F1336       F  0.90238879  0.48182584  0.44308815    -0.22400
F1337       F  0.93794885  0.44154733  0.42433452    -0.23900
F1338       F  0.88475904  0.43905575  0.41055371    -0.17900
F1339       F  0.95815079  0.07708753  0.48983209    -0.20400
F1340       F  0.98428953  0.04683386  0.02674705    -0.21500
F1341       F  0.93708683  0.02892092  0.50322034    -0.18700
F1342       F  0.53911387  0.45194895  0.37636867    -0.18800
F1343       F  0.00493765  0.48285705  0.34544572    -0.22600
F1344       F  0.98315798  0.43976518  0.37410859    -0.24200
C1345       C  0.96421616  0.47829483  0.05792042    -0.11000
C1346       C  0.97111072  0.99226109  0.08987645     0.11500
C1347       C  0.00188925  0.00546387  0.09674045    -0.02900
C1348       C  0.02558201  0.00478853  0.06962211    -0.05600
C1349       C  0.01984050  0.49265064  0.03467851    -0.16400
C1350       C  0.98781535  0.47615256  0.03076007     0.02600
C1351       C  0.94456673  0.99194816  0.11688557     0.12500
C1352       C  0.00920266  0.02085350  0.13280812     0.63100
H1353       H  0.54535933  0.01266272  0.07741689     0.12500
C1354       C  0.97347607  0.45525274  0.00077552     0.55300
H1355       H  0.94029924  0.46737192  0.05421927     0.08300
C1356       C  0.91666281  0.01358937  0.11507533    -0.05500
C1357       C  0.89448028  0.01391147  0.14331668    -0.06200
C1358       C  0.89759947  0.49186455  0.17261434    -0.15800
C1359       C  0.92447152  0.46873793  0.17280628    -0.01400
C1360       C  0.94706240  0.46978846  0.14504185    -0.08900
C1361       C  0.90986762  0.03580806  0.08324216     0.65300
H1362       H  0.87322781  0.03049353  0.14240707     0.10800
C1363       C  0.92978657  0.44317556  0.20205137     0.63700
H1364       H  0.96756734  0.45224638  0.14445393     0.08100
F1365       F  0.94660542  0.47169329  0.98684811    -0.19300
F1366       F  0.96223962  0.42562579  0.01438848    -0.15500
F1367       F  0.99475978  0.44734924  0.47588442    -0.19000
F1368       F  0.01156153  0.99621947  0.15829022    -0.22400
F1369       F  0.98457972  0.04334389  0.14184997    -0.23900
F1370       F  0.53452002  0.03671969  0.13347758    -0.17900
F1371       F  0.90618132  0.41909925  0.19932458    -0.20400
F1372       F  0.92807136  0.45849465  0.23489106    -0.21500
F1373       F  0.96014131  0.42733950  0.19990097    -0.18700
F1374       F  0.88210468  0.05571209  0.08749332    -0.18800
F1375       F  0.90494561  0.01629170  0.05350214    -0.22600
F1376       F  0.93596367  0.05639432  0.07799104    -0.24200
C1377       C  0.64706109  0.01259742  0.40312927    -0.11000
C1378       C  0.67837874  0.49841423  0.40491117     0.11500
C1379       C  0.69148432  0.49644407  0.43981632    -0.02900
C1380       C  0.66939126  0.50026501  0.46834303    -0.05600
C1381       C  0.63476547  0.50932000  0.46444048    -0.16400
C1382       C  0.63388596  0.02862253  0.43325491     0.02600
C1383       C  0.69927503  0.49430645  0.37252593     0.12500
C1384       C  0.72814336  0.49425593  0.44790986     0.63100
H1385       H  0.68154230  0.49893325  0.49335227     0.12500
C1386       C  0.64728917  0.06433653  0.43401683     0.55300
H1387       H  0.63825936  0.02007904  0.37712487     0.08300
C1388       C  0.71837157  0.46514941  0.36500814    -0.05500
C1389       C  0.74276603  0.46667370  0.33905726    -0.06200
C1390       C  0.74813933  0.49568000  0.31919496    -0.15800
C1391       C  0.72814400  0.02524158  0.32615741    -0.01400
C1392       C  0.70343378  0.02326471  0.35173833    -0.08900
C1393       C  0.71349314  0.43136641  0.38195853     0.65300
H1394       H  0.75804688  0.44469097  0.33454980     0.10800
C1395       C  0.72973372  0.05660366  0.30376145     0.63700
H1396       H  0.68713692  0.04441826  0.35547907     0.08100
F1397       F  0.67155468  0.06980557  0.40956458    -0.19300
F1398       F  0.66170555  0.07094566  0.46628212    -0.15500
F1399       F  0.62305142  0.08730920  0.42598441    -0.19000
F1400       F  0.74590037  0.50988131  0.42211466    -0.22400
F1401       F  0.73824476  0.46132574  0.45039793    -0.23900
F1402       F  0.73559099  0.50978221  0.47979767    -0.17900
F1403       F  0.72953947  0.04819327  0.26816221    -0.20400
F1404       F  0.75783267  0.07367503  0.31226471    -0.21500
F1405       F  0.70333958  0.07808299  0.30935336    -0.18700
F1406       F  0.74266176  0.41997109  0.39706334    -0.18800
F1407       F  0.70421316  0.40898851  0.35589561    -0.22600
F1408       F  0.68985200  0.43177462  0.40769623    -0.24200
C1409       C  0.73766542  0.47864143  0.10589901    -0.11000
C1410       C  0.70726336  0.99489659  0.11689595     0.11500
C1411       C  0.70222317  0.01150677  0.14979025    -0.02900
C1412       C  0.72705115  0.00966963  0.17586511    -0.05600
C1413       C  0.75595912  0.48998080  0.16622321    -0.16400
C1414       C  0.76207704  0.47568544  0.13255699     0.02600
C1415       C  0.68355811  0.99705631  0.08649754     0.12500
C1416       C  0.67153619  0.03126814  0.15944550     0.63100
H1417       H  0.72353813  0.02258511  0.20087470     0.12500
C1418       C  0.79475872  0.45897440  0.12430414     0.55300
H1419       H  0.74193846  0.46815087  0.07983437     0.08300
C1420       C  0.67694181  0.02647686  0.06727876    -0.05500
C1421       C  0.65079084  0.02661846  0.04212510    -0.06200
C1422       C  0.63228892  0.49968428  0.02809388    -0.15800
C1423       C  0.65108484  0.46890378  0.03746216    -0.01400
C1424       C  0.67198309  0.46890340  0.06747040    -0.08900
C1425       C  0.69936607  0.05627444  0.06911468     0.65300
H1426       H  0.64911949  0.04675891  0.02428032     0.10800
C1427       C  0.66158355  0.43998018  0.01299742     0.63700
H1428       H  0.68209857  0.44553379  0.07766719     0.08100
F1429       F  0.79610792  0.44816205  0.08944110    -0.19300
F1430       F  0.79997137  0.43159055  0.14596737    -0.15500
F1431       F  0.81961055  0.48134490  0.12989143    -0.19000
F1432       F  0.65861657  0.01805803  0.18989735    -0.22400
F1433       F  0.64757605  0.03089909  0.13345927    -0.23900
F1434       F  0.67949197  0.06409780  0.16594929    -0.17900
F1435       F  0.69404320  0.44330260  0.00430246    -0.20400
F1436       F  0.64381241  0.43827826  0.98199519    -0.21500
F1437       F  0.66068218  0.40981518  0.03041867    -0.18700
F1438       F  0.70827543  0.06489599  0.03518130    -0.18800
F1439       F  0.72800000  0.05003892  0.08809783    -0.22600
F1440       F  0.68342498  0.08294645  0.08478253    -0.24200
C1441       C  0.60687411  0.50474988  0.49746312    -0.01700
O1442       O  0.86166752  0.46406248  0.71649917    -0.72100
O1443       O  0.78785362  0.46785059  0.78589221    -0.73100
O1444       O  0.79217857  0.46325772  0.71107212    -0.61700
O1445       O  0.85824934  0.46993011  0.79116130    -0.70100
O1446       O  0.85924856  0.02350630  0.78548327    -0.69700
O1447       O  0.78949126  0.01729080  0.70996359    -0.60900
O1448       O  0.78900349  0.02188407  0.78470649    -0.73400
O1449       O  0.85906521  0.01845815  0.71070481    -0.72200
Cu1450     Cu  0.82506949  0.46433533  0.75149220     1.04600
Cu1451     Cu  0.82412453  0.02218938  0.74766244     1.04300
C1452       C  0.87168882  0.49093060  0.70276714     0.94100
C1453       C  0.77456473  0.49573026  0.79484647     0.93200
C1454       C  0.78049830  0.49023997  0.69751347     0.85400
C1455       C  0.86889694  0.49857902  0.80018272     0.92000
C1456       C  0.54560108  0.50215064  0.50244580    -0.01700
C1457       C  0.57365256  0.03250551  0.00299630    -0.01700
O1458       O  0.59738242  0.28901679  0.71759349    -0.72100
O1459       O  0.59735032  0.21401797  0.79009320    -0.73100
O1460       O  0.60193970  0.21778022  0.71567335    -0.61700
O1461       O  0.59434972  0.28512013  0.79312696    -0.70100
O1462       O  0.54025273  0.28428646  0.78918244    -0.69700
O1463       O  0.54772624  0.21606143  0.71100114    -0.60900
O1464       O  0.54354784  0.21315866  0.78543638    -0.73400
O1465       O  0.54350962  0.28710718  0.71369404    -0.72200
Cu1466     Cu  0.59962996  0.25166227  0.75426022     1.04600
Cu1467     Cu  0.54190115  0.25019854  0.74968660     1.04300
C1468       C  0.57024629  0.29973117  0.70382795     0.94100
C1469       C  0.57023129  0.20116836  0.79874194     0.93200
C1470       C  0.57615031  0.20589327  0.70163123     0.85400
C1471       C  0.56635511  0.29530025  0.80368751     0.91600
C1472       C  0.57806635  0.47389386  0.50180439    -0.01700
C1473       C  0.54594664  0.36990185  0.86282852    -0.11000
C1474       C  0.56969743  0.36572067  0.88976658     0.11500
C1475       C  0.58954376  0.33641848  0.89054237    -0.02900
C1476       C  0.58740518  0.31405638  0.86185478    -0.05600
C1477       C  0.56496281  0.31922868  0.83366590    -0.16400
C1478       C  0.54317745  0.34721039  0.83450542     0.02600
C1479       C  0.57240515  0.39229965  0.91722972     0.12500
C1480       C  0.61203442  0.32830795  0.92193255     0.63100
H1481       H  0.60313616  0.29198308  0.86137258     0.12500
C1482       C  0.51773840  0.35378400  0.80544172     0.55300
H1483       H  0.52963967  0.39136446  0.86403877     0.08300
C1484       C  0.59124937  0.42054673  0.91277579    -0.05500
C1485       C  0.59138945  0.44548186  0.93964867    -0.06200
C1486       C  0.57264816  0.44450256  0.97155334    -0.15800
C1487       C  0.55319078  0.41379093  0.97435452    -0.01400
C1488       C  0.55375693  0.38971512  0.94700781    -0.08900
C1489       C  0.60997752  0.42421092  0.87844766     0.65300
H1490       H  0.60437863  0.46692116  0.93342268     0.10800
C1491       C  0.53365781  0.39961741  0.00518543     0.63700
H1492       H  0.53964369  0.36717020  0.94908345     0.08100
F1493       F  0.50127048  0.38397671  0.81022013    -0.19300
F1494       F  0.49483611  0.32892861  0.80546307    -0.15500
F1495       F  0.53267230  0.35457240  0.77280510    -0.19000
F1496       F  0.59378499  0.32621609  0.95236384    -0.22400
F1497       F  0.63494731  0.35283656  0.92644314    -0.23900
F1498       F  0.62856804  0.29811497  0.91746819    -0.17900
F1499       F  0.50381372  0.38826388  0.99293184    -0.20400
F1500       F  0.52947478  0.42080107  0.53118986    -0.21500
F1501       F  0.54968107  0.37152831  0.01818244    -0.18700
F1502       F  0.62674571  0.45327153  0.87731674    -0.18800
F1503       F  0.58874699  0.42423056  0.84959531    -0.22600
F1504       F  0.63227140  0.39811049  0.87474398    -0.24200
C1505       C  0.54883833  0.35688287  0.62421420    -0.11000
C1506       C  0.57561052  0.37811181  0.62471390     0.11500
C1507       C  0.59881434  0.37550345  0.65290810    -0.02900
C1508       C  0.59622926  0.34938790  0.67760442    -0.05600
C1509       C  0.57012414  0.32706447  0.67658500    -0.16400
C1510       C  0.54523109  0.33164806  0.64988339     0.02600
C1511       C  0.57900577  0.40231395  0.59487132     0.12500
C1512       C  0.62499678  0.40139239  0.65824435     0.63100
H1513       H  0.61431304  0.34681522  0.69873995     0.12500
C1514       C  0.51531486  0.30981146  0.64740445     0.55300
H1515       H  0.53094031  0.36005497  0.60295839     0.08300
C1516       C  0.59667325  0.39447475  0.56420228    -0.05500
C1517       C  0.59733237  0.41849237  0.53663764    -0.06200
C1518       C  0.58466699  0.45217217  0.53917797    -0.15800
C1519       C  0.57580103  0.46014650  0.57560914    -0.01400
C1520       C  0.56493079  0.43408435  0.59752992    -0.08900
C1521       C  0.61196030  0.35973190  0.55916975     0.65300
H1522       H  0.60638152  0.40930129  0.51189728     0.10800
C1523       C  0.59429229  0.48434377  0.59992407     0.63700
H1524       H  0.55228827  0.43994325  0.62190727     0.08100
F1525       F  0.52499028  0.27677549  0.64361289    -0.19300
F1526       F  0.49530820  0.31813658  0.61867524    -0.15500
F1527       F  0.49676116  0.31362636  0.67754566    -0.19000
F1528       F  0.61005168  0.43173755  0.66586820    -0.22400
F1529       F  0.64347742  0.40441506  0.62812913    -0.23900
F1530       F  0.64607211  0.39335871  0.68614401    -0.17900
F1531       F  0.57704209  0.49114079  0.63041737    -0.20400
F1532       F  0.60048642  0.51447318  0.58491282    -0.21500
F1533       F  0.62315619  0.46952498  0.61115871    -0.18700
F1534       F  0.62408927  0.35514148  0.52540914    -0.18800
F1535       F  0.58895747  0.33554757  0.56452316    -0.22600
F1536       F  0.63744849  0.35481665  0.58316959    -0.24200
C1537       C  0.55315556  0.11060110  0.93687219    -0.11000
C1538       C  0.55799682  0.09607576  0.90410267     0.11500
C1539       C  0.56372764  0.06154733  0.90259317    -0.02900
C1540       C  0.56777684  0.04375113  0.93485376    -0.05600
C1541       C  0.56445470  0.05734468  0.96939451    -0.16400
C1542       C  0.55118085  0.09230869  0.96876629     0.02600
C1543       C  0.56052052  0.11917470  0.87319614     0.12500
C1544       C  0.56761118  0.04402511  0.86714279     0.63100
H1545       H  0.57562675  0.01843890  0.93304532     0.12500
C1546       C  0.53463780  0.11426071  0.99763803     0.55300
H1547       H  0.55051441  0.13754640  0.93683213     0.08300
C1548       C  0.53276025  0.13563461  0.85810638    -0.05500
C1549       C  0.53735315  0.16138781  0.83347474    -0.06200
C1550       C  0.56871072  0.17225959  0.82407706    -0.15800
C1551       C  0.59663485  0.15517540  0.83897896    -0.01400
C1552       C  0.59178623  0.12908846  0.86324369    -0.08900
C1553       C  0.49833642  0.12652741  0.86856663     0.65300
H1554       H  0.51599656  0.17392340  0.82211780     0.10800
C1555       C  0.63154688  0.16399912  0.83000114     0.63700
H1556       H  0.61269451  0.11667486  0.87547697     0.08100
F1557       F  0.51915142  0.14258338  0.98377803    -0.19300
F1558       F  0.55641134  0.12591423  0.02229871    -0.15500
F1559       F  0.51144272  0.09909412  0.51085351    -0.19000
F1560       F  0.59231663  0.05820262  0.84810375    -0.22400
F1561       F  0.53872658  0.04688778  0.84783910    -0.23900
F1562       F  0.57522867  0.01050953  0.87114598    -0.17900
F1563       F  0.65441678  0.14330522  0.84687625    -0.20400
F1564       F  0.63770095  0.19633956  0.84060814    -0.21500
F1565       F  0.63611621  0.16073407  0.79389197    -0.18700
F1566       F  0.47468813  0.14366788  0.84879323    -0.18800
F1567       F  0.49341143  0.13396991  0.90389113    -0.22600
F1568       F  0.49392210  0.09289314  0.86327023    -0.24200
C1569       C  0.58516949  0.15989314  0.61459022    -0.11000
C1570       C  0.58344002  0.12668920  0.62601307     0.11500
C1571       C  0.58247137  0.11974525  0.66274506    -0.02900
C1572       C  0.57919490  0.14658159  0.68647330    -0.05600
C1573       C  0.57943360  0.17971569  0.67478572    -0.16400
C1574       C  0.58417318  0.18668118  0.63852285     0.02600
C1575       C  0.58159804  0.10063990  0.59815660     0.12500
C1576       C  0.58559693  0.08505529  0.67842432     0.63100
H1577       H  0.57716869  0.14161800  0.71460847     0.12500
C1578       C  0.58876631  0.22136072  0.62354176     0.55300
H1579       H  0.58710796  0.16495289  0.58648691     0.08300
C1580       C  0.55156234  0.08973024  0.58474160    -0.05500
C1581       C  0.55182746  0.06773500  0.55541467    -0.06200
C1582       C  0.57913017  0.05935900  0.53484484    -0.15800
C1583       C  0.60586850  0.08202905  0.54353002    -0.01400
C1584       C  0.60931083  0.09392286  0.57852888    -0.08900
C1585       C  0.51956354  0.10429030  0.59854515     0.65300
H1586       H  0.52953872  0.05903971  0.54630161     0.10800
C1587       C  0.62312127  0.10593397  0.51881889     0.63700
H1588       H  0.63074446  0.10782262  0.58603538     0.08100
F1589       F  0.56443285  0.22825303  0.59860779    -0.19300
F1590       F  0.61879826  0.22227758  0.60721847    -0.15500
F1591       F  0.58797948  0.24626678  0.64886078    -0.19000
F1592       F  0.59098515  0.06063047  0.65325123    -0.22400
F1593       F  0.55739259  0.07788578  0.69640290    -0.23900
F1594       F  0.61177764  0.08399103  0.70210347    -0.17900
F1595       F  0.61608353  0.13880479  0.52804220    -0.20400
F1596       F  0.61297362  0.10250508  0.48483556    -0.21500
F1597       F  0.65672526  0.10264150  0.52151926    -0.18700
F1598       F  0.99131133  0.09635726  0.57767576    -0.18800
F1599       F  0.51786491  0.13805829  0.59131184    -0.22600
F1600       F  0.51755485  0.09995000  0.63474067    -0.24200
C1601       C  0.94856584  0.02225234  0.85128345    -0.11000
C1602       C  0.94475288  0.50285799  0.88072798     0.11500
C1603       C  0.91772407  0.48136718  0.88392207    -0.02900
C1604       C  0.89372441  0.48088998  0.85695930    -0.05600
C1605       C  0.89556919  0.50099771  0.82700310    -0.16400
C1606       C  0.92421890  0.02242521  0.82434780     0.02600
C1607       C  0.97117630  0.50515428  0.90864644     0.12500
C1608       C  0.91254347  0.46045632  0.91645979     0.63100
H1609       H  0.87254419  0.46535339  0.85955870     0.12500
C1610       C  0.92607810  0.04745188  0.79440474     0.55300
H1611       H  0.96780741  0.04039632  0.85100523     0.08300
C1612       C  0.00059645  0.48719159  0.90701238    -0.05500
C1613       C  0.02332182  0.48913906  0.93564839    -0.06200
C1614       C  0.01880828  0.50659735  0.96862991    -0.15800
C1615       C  0.98963385  0.02506538  0.96636381    -0.01400
C1616       C  0.96879011  0.02344499  0.93581353    -0.08900
C1617       C  0.00766991  0.46537762  0.87487595     0.65300
H1618       H  0.54236769  0.47612748  0.93105958     0.10800
C1619       C  0.97085861  0.04563046  0.99392917     0.63700
H1620       H  0.94577986  0.03756708  0.93466359     0.08100
F1621       F  0.95554609  0.06380311  0.79488855    -0.19300
F1622       F  0.90120501  0.07113329  0.79760873    -0.15500
F1623       F  0.92318527  0.03137001  0.76203488    -0.19000
F1624       F  0.90229692  0.48128440  0.94350109    -0.22400
F1625       F  0.94109627  0.44352265  0.92589532    -0.23900
F1626       F  0.88874513  0.43685725  0.91092402    -0.17900
F1627       F  0.96595753  0.07773128  0.98128425    -0.20400
F1628       F  0.98013079  0.04551071  0.53250168    -0.21500
F1629       F  0.94007415  0.03277627  0.99835787    -0.18700
F1630       F  0.53471434  0.44975795  0.87780042    -0.18800
F1631       F  0.00631023  0.48414848  0.84424663    -0.22600
F1632       F  0.98491948  0.44046483  0.87221918    -0.24200
C1633       C  0.96300402  0.47823185  0.55898151    -0.11000
C1634       C  0.97126050  0.99201009  0.59265439     0.11500
C1635       C  0.00164263  0.00632771  0.59847922    -0.02900
C1636       C  0.02466819  0.00627660  0.57070806    -0.05600
C1637       C  0.01804948  0.49435224  0.53564467    -0.16400
C1638       C  0.98662176  0.47685295  0.53178571     0.02600
C1639       C  0.94519219  0.99158060  0.62013978     0.12500
C1640       C  0.00938064  0.02194545  0.63423737     0.63100
H1641       H  0.54560427  0.01406749  0.57617003     0.12500
C1642       C  0.97313688  0.45568866  0.50154443     0.55300
H1643       H  0.93933261  0.46683431  0.55515048     0.08300
C1644       C  0.91829664  0.01454120  0.61986023    -0.05500
C1645       C  0.89550256  0.01349121  0.64727918    -0.06200
C1646       C  0.89703751  0.48985393  0.67481827    -0.15800
C1647       C  0.92366919  0.46640114  0.67406842    -0.01400
C1648       C  0.94583628  0.46770496  0.64581273    -0.08900
C1649       C  0.91268167  0.03915957  0.58999807     0.65300
H1650       H  0.87493550  0.03096386  0.64729467     0.10800
C1651       C  0.92962048  0.44083743  0.70324060     0.63700
H1652       H  0.96630742  0.45015703  0.64458852     0.08100
F1653       F  0.94698611  0.47215060  0.48616520    -0.19300
F1654       F  0.96119243  0.42629281  0.51494620    -0.15500
F1655       F  0.99410662  0.44747313  0.97396355    -0.19000
F1656       F  0.01315211  0.99724135  0.65953049    -0.22400
F1657       F  0.98443424  0.04364647  0.64421850    -0.23900
F1658       F  0.53489543  0.03710716  0.63273571    -0.17900
F1659       F  0.90527140  0.41746020  0.70229620    -0.20400
F1660       F  0.92998018  0.45649819  0.73594904    -0.21500
F1661       F  0.95934071  0.42403198  0.69952481    -0.18700
F1662       F  0.88658779  0.06085857  0.59623810    -0.18800
F1663       F  0.90579596  0.02174888  0.55931808    -0.22600
F1664       F  0.94012112  0.05798087  0.58561837    -0.24200
C1665       C  0.64622897  0.01070252  0.90384117    -0.11000
C1666       C  0.67434435  0.49882445  0.90217172     0.11500
C1667       C  0.68807313  0.49621539  0.93672035    -0.02900
C1668       C  0.66651052  0.49923482  0.96570879    -0.05600
C1669       C  0.63203043  0.50895848  0.96280624    -0.16400
C1670       C  0.63283031  0.02673887  0.93403785     0.02600
C1671       C  0.69449645  0.49407710  0.86943668     0.12500
C1672       C  0.72473978  0.49479389  0.94495708     0.63100
H1673       H  0.67934308  0.49793118  0.99039315     0.12500
C1674       C  0.64634061  0.06241525  0.93539477     0.55300
H1675       H  0.63753001  0.01818741  0.87777754     0.08300
C1676       C  0.71439653  0.46518069  0.86312049    -0.05500
C1677       C  0.73974305  0.46696067  0.83840765    -0.06200
C1678       C  0.74548074  0.49595115  0.81871378    -0.15800
C1679       C  0.72753177  0.02305306  0.82663848    -0.01400
C1680       C  0.70321301  0.02149405  0.85274859    -0.08900
C1681       C  0.71116757  0.43218339  0.88222009     0.65300
H1682       H  0.75583450  0.44535406  0.83522873     0.10800
C1683       C  0.72840457  0.05375014  0.80309759     0.63700
H1684       H  0.68706275  0.04276648  0.85655134     0.08100
F1685       F  0.67024341  0.06823624  0.91064112    -0.19300
F1686       F  0.66099123  0.06875266  0.96765742    -0.15500
F1687       F  0.62214026  0.08547268  0.92834129    -0.19000
F1688       F  0.74376756  0.50153931  0.91605557    -0.22400
F1689       F  0.73365377  0.46375273  0.95795124    -0.23900
F1690       F  0.73205368  0.51843551  0.97051230    -0.17900
F1691       F  0.72737385  0.04417671  0.76783894    -0.20400
F1692       F  0.75655877  0.07129565  0.81000088    -0.21500
F1693       F  0.70200676  0.07523615  0.80872152    -0.18700
F1694       F  0.73970089  0.42512065  0.90115085    -0.18800
F1695       F  0.70665844  0.40711465  0.85745374    -0.22600
F1696       F  0.68525132  0.43184044  0.90521405    -0.24200
C1697       C  0.73714886  0.47720693  0.60899590    -0.11000
C1698       C  0.70567658  0.99172243  0.61760186     0.11500
C1699       C  0.70067777  0.00796962  0.65069956    -0.02900
C1700       C  0.72540840  0.00555374  0.67681571    -0.05600
C1701       C  0.75564074  0.48953231  0.66887158    -0.16400
C1702       C  0.76131323  0.47398188  0.63579707     0.02600
C1703       C  0.68265221  0.99528393  0.58676557     0.12500
C1704       C  0.67044140  0.02847949  0.66029461     0.63100
H1705       H  0.72210755  0.01850121  0.70183258     0.12500
C1706       C  0.79334614  0.45563586  0.62827994     0.55300
H1707       H  0.74117120  0.46588382  0.58327476     0.08300
C1708       C  0.67677690  0.02545065  0.56856460    -0.05500
C1709       C  0.65144434  0.02661243  0.54238986    -0.06200
C1710       C  0.63350027  0.49996249  0.52962868    -0.15800
C1711       C  0.65213394  0.46917082  0.53910198    -0.01400
C1712       C  0.67258627  0.46904638  0.56941121    -0.08900
C1713       C  0.69888034  0.05533761  0.57309352     0.65300
H1714       H  0.65068495  0.04729411  0.52513098     0.10800
C1715       C  0.66297633  0.44047474  0.51449874     0.63700
H1716       H  0.68246057  0.44559038  0.57963851     0.08100
F1717       F  0.79452120  0.44403749  0.59370123    -0.19300
F1718       F  0.79712246  0.42853674  0.65061527    -0.15500
F1719       F  0.81917645  0.47690277  0.63361701    -0.19000
F1720       F  0.65631049  0.01478019  0.68981768    -0.22400
F1721       F  0.64707994  0.02993920  0.63369385    -0.23900
F1722       F  0.67947099  0.06071451  0.66830233    -0.17900
F1723       F  0.69556417  0.44391220  0.50601715    -0.20400
F1724       F  0.64544958  0.43913435  0.48336870    -0.21500
F1725       F  0.66173466  0.41010838  0.53155815    -0.18700
F1726       F  0.71017118  0.06476278  0.54034407    -0.18800
F1727       F  0.72605912  0.04903252  0.59444902    -0.22600
F1728       F  0.68168605  0.08158804  0.58787953    -0.24200
C1729       C  0.60618239  0.00318258  0.99946124    -0.01700
O1730       O  0.86330185  0.96773933  0.21491995    -0.72100
O1731       O  0.79207493  0.97018722  0.28748766    -0.73100
O1732       O  0.79373271  0.96618104  0.21236597    -0.61700
O1733       O  0.86216120  0.97368070  0.28977241    -0.70100
O1734       O  0.85757920  0.52546392  0.28381218    -0.69700
O1735       O  0.78940302  0.51916093  0.20705088    -0.60900
O1736       O  0.78754967  0.52260999  0.28209056    -0.73400
O1737       O  0.85874455  0.52068987  0.20911930    -0.72200
Cu1738     Cu  0.82796660  0.96754587  0.25137384     1.04600
Cu1739     Cu  0.82319643  0.52386805  0.24550996     1.04300
C1740       C  0.87316320  0.99442232  0.20065960     0.94100
C1741       C  0.77889010  0.99793771  0.29692445     0.93200
C1742       C  0.78160428  0.99294557  0.19874318     0.85400
C1743       C  0.87239264  0.00249575  0.29878172     0.92000
C1744       C  0.54499433  0.00050336  0.00348939    -0.01700
C1745       C  0.57439253  0.53386301  0.50117664    -0.01700
O1746       O  0.59846161  0.78810819  0.21979795    -0.72100
O1747       O  0.59861067  0.71159965  0.28963065    -0.73100
O1748       O  0.60191776  0.71720664  0.21532820    -0.61700
O1749       O  0.59733299  0.78248656  0.29507120    -0.70100
O1750       O  0.54314228  0.78292665  0.29221118    -0.69700
O1751       O  0.54763037  0.71647786  0.21157942    -0.60900
O1752       O  0.54468624  0.71192694  0.28588932    -0.73400
O1753       O  0.54443541  0.78737595  0.21709689    -0.72200
Cu1754     Cu  0.60094904  0.74998401  0.25509359     1.04600
Cu1755     Cu  0.54308459  0.74974537  0.25165496     1.04300
C1756       C  0.57124382  0.79952873  0.20693865     0.94100
C1757       C  0.57135107  0.69897146  0.29805468     0.93200
C1758       C  0.57576194  0.70609996  0.20134522     0.85400
C1759       C  0.56978248  0.79330888  0.30618612     0.91600
C1760       C  0.57741933  0.97236350  0.00399170    -0.01700
C1761       C  0.55194507  0.87012464  0.36269034    -0.11000
C1762       C  0.57466883  0.86554957  0.39053378     0.11500
C1763       C  0.59401442  0.83594251  0.39216985    -0.02900
C1764       C  0.59134805  0.81274904  0.36419570    -0.05600
C1765       C  0.56941364  0.81798025  0.33549863    -0.16400
C1766       C  0.54944285  0.84729278  0.33454636     0.02600
C1767       C  0.57675749  0.89212321  0.41801612     0.12500
C1768       C  0.61630791  0.82839502  0.42390150     0.63100
H1769       H  0.60619008  0.79005076  0.36468211     0.12500
C1770       C  0.52672074  0.85541926  0.30335351     0.55300
H1771       H  0.53635903  0.89213196  0.36291011     0.08300
C1772       C  0.59595696  0.92021868  0.41425068    -0.05500
C1773       C  0.59526615  0.94518259  0.44107547    -0.06200
C1774       C  0.57519048  0.94445071  0.47205098    -0.15800
C1775       C  0.55521318  0.91412305  0.47393556    -0.01400
C1776       C  0.55689282  0.88980220  0.44691231    -0.08900
C1777       C  0.61611813  0.92362735  0.38080748     0.65300
H1778       H  0.60884182  0.96641587  0.43557654     0.10800
C1779       C  0.53418133  0.90061401  0.50383712     0.63700
H1780       H  0.54256523  0.86736401  0.44849720     0.08100
F1781       F  0.51293091  0.88716315  0.30604505    -0.19300
F1782       F  0.50156071  0.83297106  0.30191244    -0.15500
F1783       F  0.54399025  0.85384920  0.27211066    -0.19000
F1784       F  0.59764916  0.82540892  0.45393012    -0.22400
F1785       F  0.63826035  0.85371024  0.42920732    -0.23900
F1786       F  0.63404659  0.79892999  0.41941216    -0.17900
F1787       F  0.50478667  0.88944805  0.49010070    -0.20400
F1788       F  0.52812029  0.92060834  0.03372408    -0.21500
F1789       F  0.54929754  0.87260725  0.51825344    -0.18700
F1790       F  0.63229544  0.95304271  0.37984899    -0.18800
F1791       F  0.59627812  0.92262893  0.35086399    -0.22600
F1792       F  0.63909270  0.89798384  0.37878952    -0.24200
C1793       C  0.55011839  0.85653353  0.12773867    -0.11000
C1794       C  0.57734476  0.87717770  0.12786372     0.11500
C1795       C  0.60084281  0.87424654  0.15581649    -0.02900
C1796       C  0.59778762  0.84847406  0.18072532    -0.05600
C1797       C  0.57116442  0.82689419  0.18008472    -0.16400
C1798       C  0.54610974  0.83175974  0.15372143     0.02600
C1799       C  0.58039003  0.90134557  0.09806082     0.12500
C1800       C  0.62781118  0.89935486  0.16103919     0.63100
H1801       H  0.61591520  0.84558883  0.20178068     0.12500
C1802       C  0.51529428  0.81115334  0.15245616     0.55300
H1803       H  0.53198542  0.86003812  0.10676703     0.08300
C1804       C  0.59720725  0.89344225  0.06690022    -0.05500
C1805       C  0.59678482  0.91721535  0.03909772    -0.06200
C1806       C  0.58396283  0.95085861  0.04165577    -0.15800
C1807       C  0.57571361  0.95891163  0.07836545    -0.01400
C1808       C  0.56586565  0.93284089  0.10082300    -0.08900
C1809       C  0.61298566  0.85894228  0.06178240     0.65300
H1810       H  0.60561675  0.90793619  0.01430912     0.10800
C1811       C  0.59345841  0.98396015  0.10240163     0.63700
H1812       H  0.55372031  0.93859834  0.12553294     0.08100
F1813       F  0.52339824  0.77753647  0.15102167    -0.19300
F1814       F  0.49583943  0.81853522  0.12302792    -0.15500
F1815       F  0.49688519  0.81774682  0.18224298    -0.19000
F1816       F  0.61392806  0.92970732  0.17060585    -0.22400
F1817       F  0.64527365  0.90318943  0.13035549    -0.23900
F1818       F  0.64975048  0.88970452  0.18762565    -0.17900
F1819       F  0.57547492  0.99131061  0.13221262    -0.20400
F1820       F  0.59964455  0.01375406  0.08676153    -0.21500
F1821       F  0.62218851  0.96975913  0.11495613    -0.18700
F1822       F  0.62504563  0.85453481  0.02796433    -0.18800
F1823       F  0.59037071  0.83443377  0.06727639    -0.22600
F1824       F  0.63867000  0.85441066  0.08562392    -0.24200
C1825       C  0.55381532  0.60860300  0.43133002    -0.11000
C1826       C  0.55943176  0.59253730  0.39949467     0.11500
C1827       C  0.56518990  0.55811236  0.39964987    -0.02900
C1828       C  0.56893618  0.54185054  0.43273007    -0.05600
C1829       C  0.56567585  0.55715003  0.46647533    -0.16400
C1830       C  0.55228178  0.59177762  0.46408238     0.02600
C1831       C  0.56100446  0.61388095  0.36741342     0.12500
C1832       C  0.56825583  0.53904365  0.36501892     0.63100
H1833       H  0.57657350  0.51635289  0.43222825     0.12500
C1834       C  0.53498986  0.61387484  0.49189488     0.55300
H1835       H  0.55005082  0.63539335  0.42981998     0.08300
C1836       C  0.53343987  0.63256565  0.35510254    -0.05500
C1837       C  0.53826818  0.65988120  0.33282013    -0.06200
C1838       C  0.56959207  0.66905837  0.32160794    -0.15800
C1839       C  0.59715017  0.64901246  0.33247263    -0.01400
C1840       C  0.59213847  0.62190854  0.35528528    -0.08900
C1841       C  0.49857907  0.62569496  0.36588950     0.65300
H1842       H  0.51691584  0.67452626  0.32457954     0.10800
C1843       C  0.63193744  0.65636834  0.32165155     0.63700
H1844       H  0.61298378  0.60779290  0.36549898     0.08100
F1845       F  0.51896306  0.64147447  0.47710657    -0.19300
F1846       F  0.55605703  0.62640194  0.51679150    -0.15500
F1847       F  0.50941521  0.59878733  0.01059038    -0.19000
F1848       F  0.59356024  0.55110629  0.34527615    -0.22400
F1849       F  0.53946138  0.54277326  0.34562577    -0.23900
F1850       F  0.57434227  0.50545097  0.37056397    -0.17900
F1851       F  0.65417419  0.63225245  0.33365163    -0.20400
F1852       F  0.64114070  0.68662012  0.33595063    -0.21500
F1853       F  0.63396046  0.65727551  0.28510027    -0.18700
F1854       F  0.47861681  0.62472596  0.33596289    -0.18800
F1855       F  0.48755143  0.65112545  0.38780460    -0.22600
F1856       F  0.49570299  0.59567893  0.38335637    -0.24200
C1857       C  0.58224867  0.66045078  0.11352510    -0.11000
C1858       C  0.58186994  0.62718203  0.12494475     0.11500
C1859       C  0.58252404  0.62016438  0.16170654    -0.02900
C1860       C  0.57949372  0.64689431  0.18564128    -0.05600
C1861       C  0.57840960  0.68010104  0.17406198    -0.16400
C1862       C  0.58170741  0.68719125  0.13757092     0.02600
C1863       C  0.57997448  0.60110698  0.09710620     0.12500
C1864       C  0.58702737  0.58550634  0.17717409     0.63100
H1865       H  0.57872817  0.64179979  0.21385010     0.12500
C1866       C  0.58544116  0.72190684  0.12240963     0.55300
H1867       H  0.58304434  0.66559077  0.08534607     0.08300
C1868       C  0.54988936  0.59013528  0.08378364    -0.05500
C1869       C  0.55017288  0.56820749  0.05439845    -0.06200
C1870       C  0.57748252  0.55976823  0.03391694    -0.15800
C1871       C  0.60420217  0.58238819  0.04257265    -0.01400
C1872       C  0.60779009  0.59396473  0.07767804    -0.08900
C1873       C  0.51784404  0.60420699  0.09803368     0.65300
H1874       H  0.52798757  0.55904326  0.04540684     0.10800
C1875       C  0.62075187  0.60676388  0.01779193     0.63700
H1876       H  0.62959652  0.60719842  0.08541331     0.08100
F1877       F  0.55968730  0.72893277  0.09924591    -0.19300
F1878       F  0.61438905  0.72284536  0.10393520    -0.15500
F1879       F  0.58629177  0.74664084  0.14791352    -0.19000
F1880       F  0.59227799  0.56129726  0.15174459    -0.22400
F1881       F  0.55960819  0.57756035  0.19614778    -0.23900
F1882       F  0.61391786  0.58502189  0.19989095    -0.17900
F1883       F  0.61345438  0.63944556  0.02750986    -0.20400
F1884       F  0.61026574  0.60337747  0.98393607    -0.21500
F1885       F  0.65435799  0.60390909  0.01962161    -0.18700
F1886       F  0.99232653  0.58897085  0.08244349    -0.18800
F1887       F  0.51516433  0.63777313  0.09000851    -0.22600
F1888       F  0.51670563  0.60058240  0.13439098    -0.24200
C1889       C  0.94616488  0.52341138  0.35096633    -0.11000
C1890       C  0.94470595  0.00660537  0.38252967     0.11500
C1891       C  0.91713107  0.98589573  0.38495458    -0.02900
C1892       C  0.89467588  0.98503623  0.35656525    -0.05600
C1893       C  0.89788246  0.00526142  0.32678811    -0.16400
C1894       C  0.92280233  0.52298866  0.32303229     0.02600
C1895       C  0.97061721  0.00772670  0.41069682     0.12500
C1896       C  0.91038736  0.96590537  0.41784304     0.63100
H1897       H  0.87358630  0.96921646  0.35787896     0.12500
C1898       C  0.92744776  0.54501196  0.29090498     0.55300
H1899       H  0.96675548  0.53989537  0.34982877     0.08300
C1900       C  0.99955875  0.98910779  0.40881870    -0.05500
C1901       C  0.02227324  0.99044213  0.43729315    -0.06200
C1902       C  0.01787461  0.00770582  0.47027716    -0.15800
C1903       C  0.98549388  0.52710334  0.46814311    -0.01400
C1904       C  0.96477406  0.52653101  0.43738694    -0.08900
C1905       C  0.00633491  0.96749370  0.37645030     0.65300
H1906       H  0.54711693  0.97641387  0.42971342     0.10800
C1907       C  0.96633063  0.54662035  0.49640117     0.63700
H1908       H  0.94217442  0.54135267  0.43629780     0.08100
F1909       F  0.95749816  0.56029646  0.29184510    -0.19300
F1910       F  0.90338030  0.56973722  0.28979629    -0.15500
F1911       F  0.92579734  0.52609427  0.26022792    -0.19000
F1912       F  0.90421694  0.98775533  0.44541927    -0.22400
F1913       F  0.93692422  0.94526696  0.42595267    -0.23900
F1914       F  0.88326933  0.94607448  0.41366648    -0.17900
F1915       F  0.96021088  0.57887021  0.48466906    -0.20400
F1916       F  0.98185651  0.54629994  0.02913942    -0.21500
F1917       F  0.93600131  0.53264792  0.50068314    -0.18700
F1918       F  0.54222391  0.95034897  0.37573785    -0.18800
F1919       F  0.00687103  0.98690543  0.34632663    -0.22600
F1920       F  0.98232273  0.94398780  0.37243461    -0.24200
C1921       C  0.96578681  0.97733831  0.05746962    -0.11000
C1922       C  0.96998575  0.49323355  0.09018346     0.11500
C1923       C  0.00100210  0.50582560  0.09690404    -0.02900
C1924       C  0.02459273  0.50463252  0.06976039    -0.05600
C1925       C  0.02116761  0.99287056  0.03442344    -0.16400
C1926       C  0.98934346  0.97603247  0.03020560     0.02600
C1927       C  0.94383686  0.49297396  0.11744499     0.12500
C1928       C  0.00869607  0.52123201  0.13279920     0.63100
H1929       H  0.54631302  0.51499915  0.07699842     0.12500
C1930       C  0.97525966  0.95536793  0.99980862     0.55300
H1931       H  0.94219066  0.96578344  0.05370440     0.08300
C1932       C  0.91643985  0.51530051  0.11665206    -0.05500
C1933       C  0.89429102  0.51484129  0.14476477    -0.06200
C1934       C  0.89847111  0.99255649  0.17255484    -0.15800
C1935       C  0.92573602  0.96985712  0.17360754    -0.01400
C1936       C  0.94800529  0.96977879  0.14541378    -0.08900
C1937       C  0.90961810  0.53856254  0.08572457     0.65300
H1938       H  0.87327447  0.53175190  0.14448958     0.10800
C1939       C  0.93236878  0.94670268  0.20482230     0.63700
H1940       H  0.96875416  0.95252889  0.14554536     0.08100
F1941       F  0.94843400  0.97184844  0.98558981    -0.19300
F1942       F  0.96399908  0.92556448  0.01295547    -0.15500
F1943       F  0.99500015  0.94747787  0.47564310    -0.19000
F1944       F  0.01109709  0.49663852  0.15831533    -0.22400
F1945       F  0.98437227  0.54398771  0.14202919    -0.23900
F1946       F  0.53665681  0.53745536  0.13409133    -0.17900
F1947       F  0.90860949  0.92276419  0.20610005    -0.20400
F1948       F  0.93246986  0.96486490  0.23604529    -0.21500
F1949       F  0.96242524  0.93031521  0.20234877    -0.18700
F1950       F  0.88377998  0.56053845  0.09218400    -0.18800
F1951       F  0.90163591  0.51995209  0.05609832    -0.22600
F1952       F  0.93676342  0.55717074  0.07905897    -0.24200
C1953       C  0.64636962  0.51207296  0.40194305    -0.11000
C1954       C  0.67926370  0.99947370  0.40627002     0.11500
C1955       C  0.69201559  0.99710488  0.44133416    -0.02900
C1956       C  0.66954956  0.99978054  0.46965334    -0.05600
C1957       C  0.63502510  0.00914186  0.46558345    -0.16400
C1958       C  0.63362218  0.52858042  0.43205627     0.02600
C1959       C  0.70034050  0.99548494  0.37401914     0.12500
C1960       C  0.72847032  0.99570977  0.45062424     0.63100
H1961       H  0.68153080  0.99787228  0.49480127     0.12500
C1962       C  0.64730507  0.56420709  0.43266796     0.55300
H1963       H  0.63761790  0.51948033  0.37593603     0.08300
C1964       C  0.72042387  0.96682283  0.36739376    -0.05500
C1965       C  0.74546631  0.96885369  0.34216370    -0.06200
C1966       C  0.75073464  0.99797820  0.32229983    -0.15800
C1967       C  0.72600880  0.52324429  0.32335389    -0.01400
C1968       C  0.70229917  0.52201636  0.35006449    -0.08900
C1969       C  0.71694359  0.93360282  0.38607549     0.65300
H1970       H  0.76145094  0.94726007  0.33840170     0.10800
C1971       C  0.72679723  0.55391924  0.29979060     0.63700
H1972       H  0.68657996  0.54354281  0.35419186     0.08100
F1973       F  0.67116288  0.56941498  0.40771567    -0.19300
F1974       F  0.66214306  0.57101526  0.46473855    -0.15500
F1975       F  0.62314323  0.58728981  0.42514144    -0.19000
F1976       F  0.74793640  0.00424104  0.42261130    -0.22400
F1977       F  0.73742961  0.96410713  0.46198931    -0.23900
F1978       F  0.73501789  0.01802918  0.47776166    -0.17900
F1979       F  0.72716019  0.54438267  0.26450890    -0.20400
F1980       F  0.75426506  0.57218181  0.30780837    -0.21500
F1981       F  0.69962000  0.57460516  0.30434014    -0.18700
F1982       F  0.74533376  0.92613012  0.40506201    -0.18800
F1983       F  0.71227545  0.90883030  0.36102041    -0.22600
F1984       F  0.69093417  0.93313591  0.40897151    -0.24200
C1985       C  0.73664457  0.97663829  0.11174850    -0.11000
C1986       C  0.70788411  0.49595619  0.11168786     0.11500
C1987       C  0.70187630  0.51000973  0.14567610    -0.02900
C1988       C  0.72612087  0.50663578  0.17222115    -0.05600
C1989       C  0.75626741  0.99159112  0.17058169    -0.16400
C1990       C  0.76153102  0.97506540  0.13795545     0.02600
C1991       C  0.68401541  0.49830233  0.08147754     0.12500
C1992       C  0.67064215  0.52827233  0.15627040     0.63100
H1993       H  0.72176428  0.51748845  0.19814496     0.12500
C1994       C  0.79414535  0.95798591  0.13003866     0.55300
H1995       H  0.74041142  0.96459689  0.08634778     0.08300
C1996       C  0.67692124  0.52783493  0.06263742    -0.05500
C1997       C  0.65033953  0.52804102  0.03806853    -0.06200
C1998       C  0.63279747  0.99830000  0.03183423    -0.15800
C1999       C  0.65127802  0.96753138  0.04198255    -0.01400
C2000       C  0.67136183  0.96763921  0.07265441    -0.08900
C2001       C  0.69917670  0.55771479  0.06421549     0.65300
H2002       H  0.64816420  0.54838057  0.02050501     0.10800
C2003       C  0.66266908  0.93866944  0.01788428     0.63700
H2004       H  0.68106200  0.94428667  0.08331860     0.08100
F2005       F  0.79492869  0.94523838  0.09592009    -0.19300
F2006       F  0.79999636  0.93188671  0.15327587    -0.15500
F2007       F  0.81894062  0.98076390  0.13359915    -0.19000
F2008       F  0.65577748  0.51049352  0.18270080    -0.22400
F2009       F  0.64851786  0.53254057  0.12877734    -0.23900
F2010       F  0.67820742  0.55950781  0.16928798    -0.17900
F2011       F  0.69534860  0.94225144  0.01000634    -0.20400
F2012       F  0.64566179  0.93682987  0.98647068    -0.21500
F2013       F  0.66141425  0.90847831  0.03524002    -0.18700
F2014       F  0.70745234  0.56656406  0.03013749    -0.18800
F2015       F  0.72810337  0.55143766  0.08264121    -0.22600
F2016       F  0.68335584  0.58422154  0.08032711    -0.24200
C2017       C  0.60696301  0.00425688  0.49832424    -0.01700
O2018       O  0.86167898  0.96345503  0.71507957    -0.72100
O2019       O  0.79050749  0.96692657  0.78776134    -0.73100
O2020       O  0.79223560  0.96205331  0.71279716    -0.61700
O2021       O  0.86087739  0.96847447  0.78991856    -0.70100
O2022       O  0.85666075  0.52500936  0.78625273    -0.69700
O2023       O  0.78957732  0.51855181  0.70898141    -0.60900
O2024       O  0.78634182  0.52285502  0.78334197    -0.73400
O2025       O  0.85884275  0.51905581  0.71179342    -0.72200
Cu2026     Cu  0.82640032  0.96332599  0.75162933     1.04600
Cu2027     Cu  0.82280733  0.52324893  0.74760621     1.04300
C2028       C  0.87174235  0.99037076  0.70143685     0.94100
C2029       C  0.77777635  0.99494464  0.79721926     0.93200
C2030       C  0.78005796  0.98877422  0.69927139     0.85400
C2031       C  0.87174798  0.99697075  0.79907550     0.92000
C2032       C  0.54560030  0.00169060  0.50216805    -0.01700
C2033       C  0.57271321  0.53382634  0.00066173    -0.01700
O2034       O  0.59881127  0.78963532  0.72018867    -0.72100
O2035       O  0.59786364  0.71219687  0.78957388    -0.73100
O2036       O  0.60390260  0.71878515  0.71557672    -0.61700
O2037       O  0.59519299  0.78306997  0.79570066    -0.70100
O2038       O  0.54109823  0.78270337  0.79063305    -0.69700
O2039       O  0.54974624  0.71654423  0.71044042    -0.60900
O2040       O  0.54405203  0.71204021  0.78428275    -0.73400
O2041       O  0.54502249  0.78709310  0.71552311    -0.72200
Cu2042     Cu  0.60085430  0.75112084  0.75549136     1.04600
Cu2043     Cu  0.54314301  0.74965683  0.75007685     1.04300
C2044       C  0.57167405  0.80003925  0.70613272     0.94100
C2045       C  0.57046958  0.69938060  0.79730751     0.93200
C2046       C  0.57835110  0.70698069  0.70097531     0.85400
C2047       C  0.56709606  0.79319876  0.80589390     0.91600
C2048       C  0.57800038  0.97351879  0.50259029    -0.01700
C2049       C  0.55037785  0.87113112  0.86076119    -0.11000
C2050       C  0.57020983  0.86485929  0.89082060     0.11500
C2051       C  0.58631996  0.83342542  0.89447180    -0.02900
C2052       C  0.58422708  0.81043076  0.86625422    -0.05600
C2053       C  0.56539494  0.81735416  0.83555596    -0.16400
C2054       C  0.54768371  0.84795472  0.83287207     0.02600
C2055       C  0.57283482  0.89147539  0.91845474     0.12500
C2056       C  0.60477916  0.82386672  0.92833643     0.63100
H2057       H  0.59706207  0.78656961  0.86805970     0.12500
C2058       C  0.52683343  0.85654083  0.80033371     0.55300
H2059       H  0.53711684  0.89454021  0.85910732     0.08300
C2060       C  0.59424710  0.91802771  0.91596623    -0.05500
C2061       C  0.59444827  0.94280281  0.94300551    -0.06200
C2062       C  0.57407595  0.94295448  0.97370954    -0.15800
C2063       C  0.55338321  0.91309868  0.97556875    -0.01400
C2064       C  0.55296209  0.88975107  0.94743560    -0.08900
C2065       C  0.61635963  0.91991700  0.88395768     0.65300
H2066       H  0.60939092  0.96310440  0.93800760     0.10800
C2067       C  0.53398320  0.89882295  0.00643926     0.63700
H2068       H  0.53746727  0.86814289  0.94851276     0.08100
F2069       F  0.51397998  0.88872266  0.80191281    -0.19300
F2070       F  0.50099419  0.83494598  0.79773040    -0.15500
F2071       F  0.54551585  0.85387701  0.77013433    -0.19000
F2072       F  0.58295067  0.82143964  0.95579149    -0.22400
F2073       F  0.62760182  0.84761686  0.93694195    -0.23900
F2074       F  0.62110703  0.79343696  0.92504677    -0.17900
F2075       F  0.50422016  0.88715590  0.99434287    -0.20400
F2076       F  0.52769936  0.92278983  0.53055709    -0.21500
F2077       F  0.55037151  0.87094654  0.01957245    -0.18700
F2078       F  0.63530593  0.94759797  0.88484265    -0.18800
F2079       F  0.59805785  0.92133175  0.85288916    -0.22600
F2080       F  0.63696129  0.89217035  0.88289098    -0.24200
C2081       C  0.54942275  0.85600563  0.62607960    -0.11000
C2082       C  0.57600016  0.87752315  0.62614319     0.11500
C2083       C  0.59945504  0.87529812  0.65421272    -0.02900
C2084       C  0.59715851  0.84950534  0.67928405    -0.05600
C2085       C  0.57122840  0.82709355  0.67874099    -0.16400
C2086       C  0.54615599  0.83108498  0.65215058     0.02600
C2087       C  0.57883028  0.90163767  0.59605515     0.12500
C2088       C  0.62555295  0.90127448  0.65933973     0.63100
H2089       H  0.61529305  0.84729657  0.70041147     0.12500
C2090       C  0.51634799  0.80898404  0.65036747     0.55300
H2091       H  0.53134242  0.85877036  0.60494734     0.08300
C2092       C  0.59630479  0.89393678  0.56522057    -0.05500
C2093       C  0.59678803  0.91800443  0.53769122    -0.06200
C2094       C  0.58398789  0.95165737  0.54017442    -0.15800
C2095       C  0.57501648  0.95943963  0.57667059    -0.01400
C2096       C  0.56445495  0.93326128  0.59867576    -0.08900
C2097       C  0.61178365  0.85933156  0.56006687     0.65300
H2098       H  0.60619888  0.90899924  0.51304716     0.10800
C2099       C  0.59296995  0.98395402  0.60108058     0.63700
H2100       H  0.55195528  0.93900960  0.62316967     0.08100
F2101       F  0.52619184  0.77589116  0.64746640    -0.19300
F2102       F  0.49622364  0.81645264  0.62150009    -0.15500
F2103       F  0.49783392  0.81344407  0.68047709    -0.19000
F2104       F  0.61064266  0.93115797  0.66884242    -0.22400
F2105       F  0.64281935  0.90550791  0.62857958    -0.23900
F2106       F  0.64779682  0.89245407  0.68592319    -0.17900
F2107       F  0.57505387  0.99109686  0.63096983    -0.20400
F2108       F  0.59956538  0.01384218  0.58576858    -0.21500
F2109       F  0.62149259  0.96929549  0.61345878    -0.18700
F2110       F  0.62401041  0.85493020  0.52632246    -0.18800
F2111       F  0.58886891  0.83503226  0.56521701    -0.22600
F2112       F  0.63724045  0.85449878  0.58414109    -0.24200
C2113       C  0.54989916  0.60935226  0.93184939    -0.11000
C2114       C  0.55570339  0.59376716  0.89979416     0.11500
C2115       C  0.56125842  0.55934737  0.89946599    -0.02900
C2116       C  0.56561504  0.54265782  0.93226255    -0.05600
C2117       C  0.56310666  0.55758230  0.96634356    -0.16400
C2118       C  0.54931419  0.59224904  0.96463800     0.02600
C2119       C  0.55834591  0.61544348  0.86796987     0.12500
C2120       C  0.56322177  0.54079453  0.86443485     0.63100
H2121       H  0.57318640  0.51713094  0.93116504     0.12500
C2122       C  0.53330526  0.61462413  0.99335919     0.55300
H2123       H  0.54582741  0.63610078  0.93049866     0.08300
C2124       C  0.53105750  0.63303596  0.85337111    -0.05500
C2125       C  0.53646299  0.65999347  0.83073308    -0.06200
C2126       C  0.56814042  0.66974263  0.82121780    -0.15800
C2127       C  0.59549344  0.65056856  0.83415743    -0.01400
C2128       C  0.58987883  0.62392148  0.85739227    -0.08900
C2129       C  0.49581103  0.62503353  0.86139591     0.65300
H2130       H  0.51522409  0.67378312  0.82067570     0.10800
C2131       C  0.63053757  0.65785023  0.82424424     0.63700
H2132       H  0.61045028  0.61005719  0.86846929     0.08100
F2133       F  0.51722696  0.64253040  0.97932255    -0.19300
F2134       F  0.55546587  0.62680318  0.01728302    -0.15500
F2135       F  0.51084549  0.59731282  0.50778622    -0.19000
F2136       F  0.58824620  0.55284187  0.84424429    -0.22400
F2137       F  0.53406019  0.54537348  0.84586637    -0.23900
F2138       F  0.56878771  0.50700374  0.86920897    -0.17900
F2139       F  0.65274909  0.63515738  0.83909875    -0.20400
F2140       F  0.63884525  0.68920881  0.83628219    -0.21500
F2141       F  0.63370168  0.65610641  0.78782214    -0.18700
F2142       F  0.47808562  0.62274298  0.82994721    -0.18800
F2143       F  0.48234114  0.65042802  0.88170786    -0.22600
F2144       F  0.49279501  0.59526454  0.87925718    -0.24200
C2145       C  0.58812001  0.66089059  0.61396277    -0.11000
C2146       C  0.58527997  0.62775001  0.62537361     0.11500
C2147       C  0.58403513  0.62091800  0.66210261    -0.02900
C2148       C  0.58125252  0.64783319  0.68575962    -0.05600
C2149       C  0.58208026  0.68092254  0.67405553    -0.16400
C2150       C  0.58731797  0.68777355  0.63784597     0.02600
C2151       C  0.58241144  0.60169111  0.59755135     0.12500
C2152       C  0.58611021  0.58622616  0.67786219     0.63100
H2153       H  0.57889776  0.64294312  0.71387727     0.12500
C2154       C  0.59210574  0.72242733  0.62283078     0.55300
H2155       H  0.59034007  0.66586699  0.58588223     0.08300
C2156       C  0.55195572  0.59173140  0.58412701    -0.05500
C2157       C  0.55155661  0.56934347  0.55497889    -0.06200
C2158       C  0.57880898  0.56011916  0.53441167    -0.15800
C2159       C  0.60575281  0.58243259  0.54286653    -0.01400
C2160       C  0.60987893  0.59392516  0.57789974    -0.08900
C2161       C  0.52039991  0.60725436  0.59810667     0.65300
H2162       H  0.52920918  0.56063588  0.54663398     0.10800
C2163       C  0.62233962  0.60650711  0.51795390     0.63700
H2164       H  0.63188548  0.60688599  0.58532627     0.08100
F2165       F  0.56794652  0.72929347  0.59768507    -0.19300
F2166       F  0.62224688  0.72331992  0.60671758    -0.15500
F2167       F  0.59112744  0.74737497  0.64812413    -0.19000
F2168       F  0.59221507  0.56176938  0.65290384    -0.22400
F2169       F  0.55709414  0.57950361  0.69449800    -0.23900
F2170       F  0.61133322  0.58476104  0.70273549    -0.17900
F2171       F  0.61398184  0.63920422  0.52647775    -0.20400
F2172       F  0.61291377  0.60189147  0.48398360    -0.21500
F2173       F  0.65596925  0.60438438  0.52094694    -0.18700
F2174       F  0.99075428  0.59326568  0.58284634    -0.18800
F2175       F  0.52061114  0.64143042  0.59336085    -0.22600
F2176       F  0.51746848  0.60086149  0.63383170    -0.24200
C2177       C  0.94680021  0.52282107  0.85037088    -0.11000
C2178       C  0.94843423  0.99938736  0.87932912     0.11500
C2179       C  0.92321318  0.97556862  0.88044987    -0.02900
C2180       C  0.89915158  0.97558315  0.85343352    -0.05600
C2181       C  0.89878501  0.99886250  0.82585527    -0.16400
C2182       C  0.92291360  0.52183716  0.82298866     0.02600
C2183       C  0.97429954  0.00220552  0.90770638     0.12500
C2184       C  0.91897881  0.95250664  0.91163598     0.63100
H2185       H  0.87933384  0.95813466  0.85456813     0.12500
C2186       C  0.92746485  0.54214495  0.78959390     0.55300
H2187       H  0.96741373  0.53917128  0.84826151     0.08300
C2188       C  0.00457405  0.98589644  0.90608970    -0.05500
C2189       C  0.02691984  0.98878068  0.93498278    -0.06200
C2190       C  0.02137853  0.00613104  0.96790734    -0.15800
C2191       C  0.98729913  0.52622164  0.96787814    -0.01400
C2192       C  0.96644603  0.52605800  0.93722806    -0.08900
C2193       C  0.01317283  0.96562275  0.87329165     0.65300
H2194       H  0.54781184  0.97609381  0.93093242     0.10800
C2195       C  0.96821101  0.54551827  0.99641210     0.63700
H2196       H  0.94375731  0.54074034  0.93652972     0.08100
F2197       F  0.95858989  0.55493809  0.78807236    -0.19300
F2198       F  0.90511925  0.56849632  0.78868156    -0.15500
F2199       F  0.92293318  0.52232636  0.75992365    -0.19000
F2200       F  0.90525590  0.97069879  0.93896382    -0.22400
F2201       F  0.94856931  0.93842373  0.92241588    -0.23900
F2202       F  0.89826151  0.92663410  0.90338703    -0.17900
F2203       F  0.96203356  0.57788062  0.98511482    -0.20400
F2204       F  0.97994116  0.54775053  0.52918109    -0.21500
F2205       F  0.93787921  0.53160925  0.00064468    -0.18700
F2206       F  0.54399678  0.95154157  0.87609371    -0.18800
F2207       F  0.01118304  0.98552391  0.84347582    -0.22600
F2208       F  0.99185823  0.93957820  0.86917927    -0.24200
C2209       C  0.96556499  0.97672555  0.56049233    -0.11000
C2210       C  0.96852590  0.49291856  0.59147785     0.11500
C2211       C  0.99882542  0.50719465  0.59793004    -0.02900
C2212       C  0.02225152  0.50711209  0.57060285    -0.05600
C2213       C  0.02005780  0.99334940  0.53591980    -0.16400
C2214       C  0.98865229  0.97559958  0.53271428     0.02600
C2215       C  0.94257258  0.49167313  0.61891708     0.12500
C2216       C  0.00582665  0.52307579  0.63381713     0.63100
H2217       H  0.54644186  0.51575750  0.57669511     0.12500
C2218       C  0.97448045  0.95448325  0.50274468     0.55300
H2219       H  0.94197549  0.96502249  0.55722115     0.08300
C2220       C  0.91563597  0.51447226  0.61929083    -0.05500
C2221       C  0.89367867  0.51342046  0.64751555    -0.06200
C2222       C  0.89764377  0.98941186  0.67408896    -0.15800
C2223       C  0.92411398  0.96580139  0.67401565    -0.01400
C2224       C  0.94756318  0.96750611  0.64701389    -0.08900
C2225       C  0.90933051  0.53917212  0.58953011     0.65300
H2226       H  0.87290147  0.53062259  0.64790074     0.10800
C2227       C  0.92800822  0.93920399  0.70239792     0.63700
H2228       H  0.96792138  0.94978678  0.64641304     0.08100
F2229       F  0.94702258  0.97000175  0.48900115    -0.19300
F2230       F  0.96421324  0.92451490  0.51643105    -0.15500
F2231       F  0.99624541  0.94777113  0.97327574    -0.19000
F2232       F  0.00818468  0.49872123  0.65961624    -0.22400
F2233       F  0.98101379  0.54549219  0.64244844    -0.23900
F2234       F  0.53615601  0.53772460  0.63377869    -0.17900
F2235       F  0.90348098  0.91620628  0.69843533    -0.20400
F2236       F  0.92634659  0.95368291  0.73569485    -0.21500
F2237       F  0.95775068  0.92222189  0.70023420    -0.18700
F2238       F  0.88418991  0.56159887  0.59726282    -0.18800
F2239       F  0.90071803  0.52205047  0.55909026    -0.22600
F2240       F  0.93699141  0.55723701  0.58351027    -0.24200
C2241       C  0.64249015  0.51305739  0.90011438    -0.11000
C2242       C  0.67856061  0.99772195  0.90711757     0.11500
C2243       C  0.69114680  0.99550162  0.94219005    -0.02900
C2244       C  0.66854957  0.99805112  0.97037650    -0.05600
C2245       C  0.63396573  0.00737290  0.96635756    -0.16400
C2246       C  0.63040544  0.52894408  0.93092448     0.02600
C2247       C  0.70003585  0.99375084  0.87511830     0.12500
C2248       C  0.72763468  0.99461045  0.95145119     0.63100
H2249       H  0.68060384  0.99646196  0.99544242     0.12500
C2250       C  0.64425698  0.56443665  0.93207511     0.55300
H2251       H  0.63326867  0.52105447  0.87446676     0.08300
C2252       C  0.72025654  0.96508305  0.86860541    -0.05500
C2253       C  0.74504946  0.96691400  0.84320231    -0.06200
C2254       C  0.74999527  0.99565680  0.82287058    -0.15800
C2255       C  0.72268685  0.52317030  0.82151001    -0.01400
C2256       C  0.69779344  0.52166159  0.84692491    -0.08900
C2257       C  0.71692403  0.93159461  0.88666720     0.65300
H2258       H  0.76100715  0.94528362  0.83947599     0.10800
C2259       C  0.72419097  0.55387222  0.79812176     0.63700
H2260       H  0.68184056  0.54314310  0.85067457     0.08100
F2261       F  0.66787980  0.56995317  0.90684646    -0.19300
F2262       F  0.65940998  0.57060758  0.96407808    -0.15500
F2263       F  0.62003820  0.58766205  0.92546370    -0.19000
F2264       F  0.74668914  0.00527903  0.92393956    -0.22400
F2265       F  0.73743464  0.96265401  0.96079712    -0.23900
F2266       F  0.73379628  0.01560383  0.97988558    -0.17900
F2267       F  0.72557500  0.54435276  0.76290824    -0.20400
F2268       F  0.75144322  0.57208993  0.80708515    -0.21500
F2269       F  0.69690741  0.57459735  0.80182334    -0.18700
F2270       F  0.74617885  0.92277405  0.90339463    -0.18800
F2271       F  0.71007877  0.90776791  0.86115225    -0.22600
F2272       F  0.69245306  0.93118974  0.91138956    -0.24200
C2273       C  0.73446718  0.97244993  0.61267168    -0.11000
C2274       C  0.70800105  0.49583439  0.61414481     0.11500
C2275       C  0.70260764  0.51158759  0.64740841    -0.02900
C2276       C  0.72666757  0.50802991  0.67407829    -0.05600
C2277       C  0.75441992  0.98717788  0.67142313    -0.16400
C2278       C  0.75900320  0.96977612  0.63914330     0.02600
C2279       C  0.68451500  0.49839330  0.58370501     0.12500
C2280       C  0.67269946  0.53277699  0.65666805     0.63100
H2281       H  0.72288679  0.52023099  0.69940628     0.12500
C2282       C  0.79019511  0.94971578  0.63213719     0.55300
H2283       H  0.73801632  0.96026992  0.58730699     0.08300
C2284       C  0.67785928  0.52801821  0.56490068    -0.05500
C2285       C  0.65155814  0.52833282  0.53995304    -0.06200
C2286       C  0.63329393  0.99872973  0.53081537    -0.15800
C2287       C  0.65129361  0.96752962  0.54025611    -0.01400
C2288       C  0.67062943  0.96646194  0.57138467    -0.08900
C2289       C  0.70048784  0.55770942  0.56689117     0.65300
H2290       H  0.65011547  0.54853233  0.52207152     0.10800
C2291       C  0.66287882  0.93926300  0.51548935     0.63700
H2292       H  0.67977771  0.94266460  0.58145233     0.08100
F2293       F  0.79067099  0.93685982  0.59803641    -0.19300
F2294       F  0.79281144  0.92327005  0.65549259    -0.15500
F2295       F  0.81704859  0.96982307  0.63650267    -0.19000
F2296       F  0.65860036  0.52022336  0.68679997    -0.22400
F2297       F  0.64910610  0.53379236  0.63027500    -0.23900
F2298       F  0.68230112  0.56506014  0.66353650    -0.17900
F2299       F  0.69565543  0.94299490  0.50832176    -0.20400
F2300       F  0.64626281  0.93824972  0.48380987    -0.21500
F2301       F  0.66135342  0.90857109  0.53182410    -0.18700
F2302       F  0.70899624  0.56687148  0.53299494    -0.18800
F2303       F  0.72932351  0.55093558  0.58533294    -0.22600
F2304       F  0.68503341  0.58427622  0.58327235    -0.24200
loop_ 
_geom_bond_atom_site_label_1 
_geom_bond_atom_site_label_2 
_geom_bond_distance 
_geom_bond_site_symmetry_2 
_ccdc_geom_bond_type 
C1           C32   1.735   1_556  S
C1          C881   1.755   1_556  S
C1          C270   1.628   1_556  S
C1          C517   1.710       .  S
O2          Cu10   2.009       .  S
O2           C12   1.276       .  A
O3          Cu10   2.026       .  S
O3           C13   1.280       .  A
O4          Cu10   2.013       .  S
O4           C14   1.278       .  A
O5          Cu10   2.017       .  S
O5           C15   1.281       .  A
O6          Cu11   1.992       .  S
O6          C591   1.273   1_545  A
O7          Cu11   1.989       .  S
O7          C590   1.275   1_545  A
O8          Cu11   2.024       .  S
O8          C589   1.279   1_545  A
O9          Cu11   2.020       .  S
O9          C588   1.281   1_545  A
Cu10       Cu587   2.366       .  S
Cu11       Cu586   2.367   1_545  S
C12         O585   1.280       .  A
C12         C206   1.486       .  S
C13         O584   1.279       .  A
C13         C238   1.509       .  S
C14         O583   1.275       .  A
C14         C261   1.472       .  S
C15         O582   1.274       .  A
C15         C165   1.484       .  S
C16          C32   1.725       .  S
C16         C881   1.754       .  S
C16        C1614   1.683   1_554  S
C16        C1349   1.658       .  S
C17         C865   1.755       .  S
C17         C880   1.750       .  S
C17         C101   1.650       .  S
C17         C430   1.641       .  S
O18         Cu26   2.029       .  S
O18          C28   1.283       .  A
O19         Cu26   2.023       .  S
O19          C29   1.278       .  A
O20         Cu26   1.987       .  S
O20          C30   1.273       .  A
O21         Cu26   1.997       .  S
O21          C31   1.275       .  A
O22         Cu27   2.030       .  S
O22          C31   1.280       .  A
O23         Cu27   2.018       .  S
O23          C30   1.279       .  A
O24         Cu27   2.003       .  S
O24          C29   1.278       .  A
O25         Cu27   2.015       .  S
O25          C28   1.276       .  A
Cu26        Cu27   2.366       .  S
C28          C69   1.500       .  S
C29         C110   1.502       .  S
C30         C133   1.464       .  S
C31          C37   1.485       .  S
C32          C78   1.680       .  S
C32         C334   1.639   1_554  S
C33          C34   1.402       .  A
C33          C38   1.406       .  A
C33          H43   1.078       .  S
C34          C39   1.489       .  S
C34          C35   1.413       .  A
C35          C40   1.520       .  S
C35          C36   1.409       .  A
C36          C37   1.409       .  A
C36          H41   1.083       .  S
C37          C38   1.418       .  A
C38          C42   1.519       .  S
C39          C44   1.396       .  A
C39          C48   1.371       .  A
C40          F56   1.383       .  S
C40          F57   1.382       .  S
C40          F58   1.384       .  S
C42          F53   1.385       .  S
C42          F54   1.382   1_455  S
C42          F55   1.383       .  S
C44          C49   1.523       .  S
C44          C45   1.422       .  A
C45          C46   1.438       .  A
C45          H50   1.051       .  S
C46         C320   1.647       .  S
C46          C47   1.487       .  A
C47          C51   1.539       .  S
C47          C48   1.410       .  A
C48          H52   1.087       .  S
C49          F62   1.367       .  S
C49          F63   1.381       .  S
C49          F64   1.381       .  S
C51          F59   1.384       .  S
C51          F61   1.380       .  S
C51         F348   1.369       .  S
F60         C339   1.367       .  S
C65          C66   1.402       .  A
C65          C70   1.415       .  A
C65          H75   1.083       .  S
C66          C71   1.499       .  S
C66          C67   1.419       .  A
C67          C72   1.517       .  S
C67          C68   1.407       .  A
C68          C69   1.404       .  A
C68          H73   1.082       .  S
C69          C70   1.428       .  A
C70          C74   1.520       .  S
C71          C76   1.404       .  A
C71          C80   1.390       .  A
C72          F88   1.381       .  S
C72          F89   1.381       .  S
C72          F90   1.385       .  S
C74          F85   1.383       .  S
C74          F86   1.385   1_455  S
C74          F87   1.383   1_455  S
C76          C81   1.526       .  S
C76          C77   1.422       .  A
C77          C78   1.442       .  A
C77          H82   1.071       .  S
C78          C79   1.460       .  A
C79          C83   1.535       .  S
C79          C80   1.417       .  A
C80          H84   1.085       .  S
C81          F94   1.384       .  S
C81          F95   1.383       .  S
C81          F96   1.382       .  S
C83          F91   1.381       .  S
C83          F92   1.365       .  S
C83          F93   1.372       .  S
C97          C98   1.380       .  A
C97         C102   1.414       .  A
C97         H107   1.084       .  S
C98         C103   1.492       .  S
C98          C99   1.397       .  A
C99         C104   1.516       .  S
C99         C100   1.418       .  A
C100        C101   1.421       .  A
C100        H105   1.062       .  S
C101        C102   1.487       .  A
C102        C106   1.541       .  S
C103        C108   1.414       .  A
C103        C112   1.405       .  A
C104        F120   1.382       .  S
C104        F121   1.382       .  S
C104        F122   1.382       .  S
C106        F117   1.388       .  S
C106        F118   1.366       .  S
C106        F407   1.351       .  S
C108        C113   1.517   1_455  S
C108        C109   1.403       .  A
C109        C110   1.410       .  A
C109        H114   1.084       .  S
C110        C111   1.427       .  A
C111        C115   1.521       .  S
C111        C112   1.412       .  A
C112        H116   1.080       .  S
C113        F126   1.383       .  S
C113        F127   1.382       .  S
C113        F128   1.382       .  S
C115        F123   1.385       .  S
C115        F124   1.383       .  S
C115        F125   1.383       .  S
F119        C394   1.357   1_554  S
C129        C130   1.406       .  A
C129        C134   1.404       .  A
C129        H139   1.083       .  S
C130        C135   1.487       .  S
C130        C131   1.417       .  A
C131        C136   1.515       .  S
C131        C132   1.404       .  A
C132        C133   1.402       .  A
C132        H137   1.085       .  S
C133        C134   1.415       .  A
C134        C138   1.521       .  S
C135        C140   1.403       .  A
C135        C144   1.389       .  A
C136        F152   1.379       .  S
C136        F153   1.383       .  S
C136        F154   1.384       .  S
C138        F149   1.382       .  S
C138        F150   1.384       .  S
C138        F151   1.381       .  S
C140        C145   1.520       .  S
C140        C141   1.415       .  A
C141        C142   1.406       .  A
C141        H146   1.038       .  S
C142        C305   1.646       .  S
C142        C143   1.467       .  A
C143        C147   1.531       .  S
C143        C144   1.410       .  A
C144        H148   1.083       .  S
C145        F159   1.382       .  S
C145        F160   1.381       .  S
C145       F1310   1.381   1_455  S
C147        F155   1.387       .  S
C147        F156   1.350   1_554  S
C147        F157   1.378       .  S
F158       C1297   1.381       .  S
C161        C166   1.410       .  A
C161        C738   1.402   1_545  A
C161        H171   1.083       .  S
C162        C167   1.498       .  S
C162        C163   1.420       .  A
C162        C737   1.404       .  A
C163        C168   1.512       .  S
C163        C164   1.402       .  A
C164        C165   1.397       .  A
C164        H169   1.083       .  S
C165        C742   1.423       .  A
C166        C170   1.520       .  S
C166        C741   1.423   1_545  A
C167        C172   1.390       .  A
C167        C752   1.378       .  A
C168        F184   1.381       .  S
C168        F185   1.380       .  S
C168        F186   1.385       .  S
C170        F181   1.385       .  S
C170        F182   1.382       .  S
C170        F183   1.383       .  S
C172        C177   1.522       .  S
C172        C173   1.415       .  A
C173        C174   1.438       .  A
C173       H1330   1.022       .  S
C174       C1456   1.680       .  S
C174        C751   1.494       .  A
C175        C179   1.533       .  S
C175        C176   1.423       .  A
C175        C750   1.490       .  A
C176        C743   1.376       .  A
C176        H180   1.087       .  S
C177        F191   1.381       .  S
C177        F192   1.381       .  S
C177       F1342   1.375       .  S
H178       C1325   1.040       .  S
C179        F187   1.384       .  S
C179        F189   1.383       .  S
C179        F476   1.349       .  S
F188        C467   1.349   1_554  S
F190       C1329   1.372       .  S
C193        C198   1.417       .  A
C193        C770   1.374       .  A
C193        H203   1.086       .  S
C194        C199   1.500       .  S
C194        C195   1.394   1_565  A
C194        C769   1.377       .  A
C195        C200   1.520       .  S
C195        C196   1.419       .  A
C196        C773   1.420   1_545  A
C196       H1353   1.039       .  S
C197       C1168   1.658       .  S
C197        C198   1.484       .  A
C197        C772   1.424       .  A
C198        C202   1.526       .  S
C199        C204   1.418   1_565  A
C199        C784   1.405       .  A
C200        F216   1.381   1_545  S
C200        F217   1.383       .  S
C200       F1370   1.374       .  S
H201       C1348   1.040       .  S
C202        F213   1.368   1_554  S
C202        F214   1.386       .  S
C202        F503   1.357   1_554  S
C204        C209   1.517       .  S
C204        C205   1.406       .  A
C205        C782   1.403   1_545  A
C205        H210   1.083       .  S
C206        C207   1.422       .  A
C206        C781   1.402       .  A
C207        C211   1.518       .  S
C207        C208   1.409       .  A
C208        C775   1.401       .  A
C208        H212   1.083       .  S
C209        F222   1.385       .  S
C209        F223   1.380       .  S
C209        F224   1.379       .  S
C211        F219   1.382       .  S
C211        F220   1.383       .  S
C211        F221   1.385       .  S
F215        C490   1.356       .  S
F218       C1352   1.374       .  S
C225        C230   1.413       .  A
C225        C802   1.413   1_545  A
C225        H235   1.080       .  S
C226        C231   1.515       .  S
C226        C227   1.414       .  A
C226        C801   1.414       .  A
C227        C232   1.526       .  S
C227        C228   1.424       .  A
C228        C229   1.459       .  A
C228        H233   1.059       .  S
C229        C289   1.718       .  S
C229        C806   1.448       .  A
C230        C234   1.548       .  S
C230        C805   1.445       .  A
C231        C236   1.424       .  A
C231        C816   1.407       .  A
C232        F248   1.383       .  S
C232        F249   1.377       .  S
C232        F250   1.385       .  S
C234        F245   1.386       .  S
C234        F246   1.375       .  S
C234        F247   1.366       .  S
C236        C241   1.518       .  S
C236        C237   1.413       .  A
C237        C238   1.411       .  A
C237        H242   1.084       .  S
C238        C815   1.425       .  A
C239        C243   1.520       .  S
C239        C240   1.407       .  A
C239        C814   1.423   1_545  A
C240        C807   1.406   1_545  A
C240        H244   1.078       .  S
C241        F254   1.384       .  S
C241        F255   1.384       .  S
C241        F256   1.380       .  S
C243        F251   1.382       .  S
C243        F252   1.382       .  S
C243        F253   1.385       .  S
C257        C262   1.407       .  A
C257        C834   1.408       .  A
C257        H267   1.083       .  S
C258        C263   1.482       .  S
C258        C259   1.420   1_565  A
C258        C833   1.406       .  A
C259        C264   1.519       .  S
C259        C260   1.401       .  A
C260        C837   1.400   1_545  A
C260        H265   1.083       .  S
C261        C262   1.414       .  A
C261        C836   1.400       .  A
C262        C266   1.519       .  S
C263        C268   1.404   1_565  A
C263        C848   1.387       .  A
C264        F280   1.384       .  S
C264        F281   1.375       .  S
C264        F282   1.384       .  S
C266        F277   1.384       .  S
C266        F278   1.382       .  S
C266        F279   1.384       .  S
C268        C273   1.522       .  S
C268        C269   1.415       .  A
C269        C846   1.416   1_545  A
C269        H274   1.055       .  S
C270        C271   1.479       .  A
C270        C845   1.419       .  A
C271        C275   1.538       .  S
C271        C272   1.406       .  A
C272        C839   1.388       .  A
C272        H276   1.085       .  S
C273        F286   1.384       .  S
C273        F287   1.382       .  S
C273        F288   1.377       .  S
C275        F283   1.383       .  S
C275        F284   1.368   1_554  S
C275        F285   1.381       .  S
C289        C593   1.758       .  S
C289        C320   1.736       .  S
C289        C558   1.624       .  S
O290       Cu298   2.013       .  S
O290        C300   1.276       .  A
O291       Cu298   2.025       .  S
O291        C301   1.280       .  A
O292       Cu298   2.020       .  S
O292        C302   1.278       .  A
O293       Cu298   2.022       .  S
O293        C303   1.281       .  A
O294       Cu299   2.014       .  S
O294        C879   1.277   1_545  A
O295       Cu299   2.001       .  S
O295        C878   1.276   1_545  A
O296       Cu299   2.019       .  S
O296        C877   1.278   1_545  A
O297       Cu299   2.016       .  S
O297        C876   1.279   1_545  A
Cu298      Cu875   2.367       .  S
Cu299      Cu874   2.366   1_545  S
C300        O873   1.280       .  A
C300        C494   1.489       .  S
C301        O872   1.279       .  A
C301        C526   1.506       .  S
C302        O871   1.274       .  A
C302        C549   1.471       .  S
C303        O870   1.273       .  A
C303        C453   1.482       .  S
C304        C593   1.753       .  S
C304        C320   1.724       .  S
C304       C1326   1.682       .  S
C304       C1637   1.658       .  S
C305        C577   1.757   1_554  S
C305        C592   1.755       .  S
C305        C389   1.653   1_554  S
O306       Cu314   2.030       .  S
O306        C316   1.282       .  A
O307       Cu314   2.029       .  S
O307        C317   1.280       .  A
O308       Cu314   1.985       .  S
O308        C318   1.273       .  A
O309       Cu314   1.990       .  S
O309        C319   1.275       .  A
O310       Cu315   2.023       .  S
O310        C319   1.279       .  A
O311       Cu315   2.016       .  S
O311        C318   1.279       .  A
O312       Cu315   2.009       .  S
O312        C317   1.278       .  A
O313       Cu315   2.008       .  S
O313        C316   1.275       .  A
Cu314      Cu315   2.367       .  S
C316        C357   1.497       .  S
C317        C398   1.506       .  S
C318        C421   1.462       .  S
C319        C325   1.479       .  S
C320        C366   1.678       .  S
C321        C322   1.402       .  A
C321        C326   1.404       .  A
C321        H331   1.077       .  S
C322        C327   1.486       .  S
C322        C323   1.414       .  A
C323        C328   1.521       .  S
C323        C324   1.407       .  A
C324        C325   1.407       .  A
C324        H329   1.083       .  S
C325        C326   1.417       .  A
C326        C330   1.520       .  S
C327        C332   1.397       .  A
C327        C336   1.372       .  A
C328        F344   1.382       .  S
C328        F345   1.381       .  S
C328        F346   1.385       .  S
C330        F341   1.386       .  S
C330        F342   1.382   1_455  S
C330        F343   1.383       .  S
C332        C337   1.524       .  S
C332        C333   1.422       .  A
C333        C334   1.438       .  A
C333        H338   1.050       .  S
C334        C335   1.483       .  A
C335        C339   1.536   1_556  S
C335        C336   1.408       .  A
C336        H340   1.087       .  S
C337        F350   1.369       .  S
C337        F351   1.382       .  S
C337        F352   1.381       .  S
C339        F347   1.384   1_554  S
C339        F349   1.378       .  S
C353        C354   1.402       .  A
C353        C358   1.413       .  A
C353        H363   1.083       .  S
C354        C359   1.495       .  S
C354        C355   1.416       .  A
C355        C360   1.518       .  S
C355        C356   1.408       .  A
C356        C357   1.406       .  A
C356        H361   1.083       .  S
C357        C358   1.428       .  A
C358        C362   1.521       .  S
C359        C364   1.403       .  A
C359        C368   1.390       .  A
C360        F376   1.381       .  S
C360        F377   1.381       .  S
C360        F378   1.384       .  S
C362        F373   1.383       .  S
C362        F374   1.385   1_455  S
C362        F375   1.383   1_455  S
C364        C369   1.528       .  S
C364        C365   1.419       .  A
C365        C366   1.439       .  A
C365        H370   1.070       .  S
C366        C367   1.460       .  A
C367        C371   1.536       .  S
C367        C368   1.417       .  A
C368        H372   1.084       .  S
C369        F382   1.383       .  S
C369        F383   1.383       .  S
C369        F384   1.381       .  S
C371        F379   1.381       .  S
C371        F380   1.366       .  S
C371        F381   1.371       .  S
C385        C386   1.380       .  A
C385        C390   1.419       .  A
C385        H395   1.083       .  S
C386        C391   1.493       .  S
C386        C387   1.395       .  A
C387        C392   1.518       .  S
C387        C388   1.417       .  A
C388        C389   1.422       .  A
C388        H393   1.062       .  S
C389        C390   1.493       .  A
C390        C394   1.550       .  S
C391        C396   1.414       .  A
C391        C400   1.404       .  A
C392        F408   1.382       .  S
C392        F409   1.383       .  S
C392        F410   1.381       .  S
C394        F405   1.388       .  S
C394        F406   1.364   1_556  S
C396        C401   1.521   1_455  S
C396        C397   1.407       .  A
C397        C398   1.413       .  A
C397        H402   1.084       .  S
C398        C399   1.427       .  A
C399        C403   1.521       .  S
C399        C400   1.411       .  A
C400        H404   1.081       .  S
C401        F414   1.382       .  S
C401        F415   1.383       .  S
C401        F416   1.382       .  S
C403        F411   1.385       .  S
C403        F412   1.383       .  S
C403        F413   1.384       .  S
C417        C418   1.404       .  A
C417        C422   1.401       .  A
C417        H427   1.084       .  S
C418        C423   1.484       .  S
C418        C419   1.415       .  A
C419        C424   1.514       .  S
C419        C420   1.402       .  A
C420        C421   1.401       .  A
C420        H425   1.085       .  S
C421        C422   1.416       .  A
C422        C426   1.519       .  S
C423        C428   1.403       .  A
C423        C432   1.386       .  A
C424        F440   1.379       .  S
C424        F441   1.382       .  S
C424        F442   1.384       .  S
C426        F437   1.383       .  S
C426        F438   1.384       .  S
C426        F439   1.380       .  S
C428        C433   1.521       .  S
C428        C429   1.417       .  A
C429        C430   1.408       .  A
C429        H434   1.030       .  S
C430        C431   1.463       .  A
C431        C435   1.527       .  S
C431        C432   1.408       .  A
C432        H436   1.081       .  S
C433       F1598   1.379   1_455  S
C433        F447   1.383       .  S
C433        F448   1.380       .  S
C435        F443   1.386       .  S
C435        F444   1.347       .  S
C435        F445   1.379       .  S
F446       C1585   1.379       .  S
C449       C1026   1.403   1_545  A
C449        C454   1.412       .  A
C449        H459   1.080       .  S
C450        C455   1.498       .  S
C450       C1025   1.402       .  A
C450        C451   1.421       .  A
C451        C456   1.512       .  S
C451        C452   1.404       .  A
C452        C453   1.398       .  A
C452        H457   1.083       .  S
C453       C1030   1.422       .  A
C454        C458   1.519       .  S
C454       C1029   1.422   1_545  A
C455        C460   1.390       .  A
C455       C1040   1.377       .  A
C456        F472   1.381       .  S
C456        F473   1.381       .  S
C456        F474   1.385       .  S
C458        F469   1.385       .  S
C458        F470   1.382       .  S
C458        F471   1.384       .  S
C460        C465   1.521       .  S
C460        C461   1.416       .  A
C461        C462   1.437       .  A
C461       H1618   1.030       .  S
C462       C1168   1.680   1_556  S
C462       C1039   1.493       .  A
C463        C467   1.531       .  S
C463       C1038   1.490       .  A
C463        C464   1.426       .  A
C464       C1031   1.378       .  A
C464        H468   1.087       .  S
C465       F1630   1.374       .  S
C465        F479   1.381       .  S
C465        F480   1.382       .  S
H466       C1613   1.035       .  S
C467        F475   1.384       .  S
C467        F477   1.384       .  S
F478       C1617   1.374       .  S
C481       C1058   1.374       .  A
C481        C486   1.420       .  A
C481        H491   1.087       .  S
C482        C487   1.498       .  S
C482       C1057   1.374       .  A
C482        C483   1.394   1_565  A
C483        C488   1.518       .  S
C483        C484   1.419       .  A
C484       C1061   1.420   1_545  A
C484       H1641   1.039       .  S
C485       C1456   1.661       .  S
C485       C1060   1.423       .  A
C485        C486   1.485       .  A
C486        C490   1.524       .  S
C487        C492   1.419   1_565  A
C487       C1072   1.403       .  A
C488        F504   1.382   1_545  S
C488        F505   1.383       .  S
C488       F1658   1.373       .  S
H489       C1636   1.038       .  S
C490        F501   1.369       .  S
C490        F502   1.386       .  S
C492        C497   1.516       .  S
C492        C493   1.408       .  A
C493       C1070   1.404   1_545  A
C493        H498   1.083       .  S
C494       C1069   1.403       .  A
C494        C495   1.422       .  A
C495        C499   1.519       .  S
C495        C496   1.410       .  A
C496       C1063   1.402       .  A
C496        H500   1.083       .  S
C497        F510   1.385       .  S
C497        F511   1.381       .  S
C497        F512   1.379       .  S
C499        F507   1.382       .  S
C499        F508   1.383       .  S
C499        F509   1.385       .  S
F506       C1640   1.373       .  S
C513       C1090   1.410       .  A
C513        C518   1.414       .  A
C513        H523   1.080       .  S
C514        C519   1.501       .  S
C514       C1089   1.411       .  A
C514        C515   1.412       .  A
C515        C520   1.526       .  S
C515        C516   1.418       .  A
C516        C517   1.462       .  A
C516        H521   1.063       .  S
C517       C1094   1.447       .  A
C518        C522   1.545       .  S
C518       C1093   1.446       .  A
C519        C524   1.422       .  A
C519       C1104   1.405       .  A
C520        F536   1.381       .  S
C520        F537   1.380       .  S
C520        F538   1.384       .  S
C522        F533   1.387       .  S
C522        F534   1.373       .  S
C522        F535   1.367       .  S
C524        C529   1.521       .  S
C524        C525   1.410       .  A
C525        C526   1.411       .  A
C525        H530   1.084       .  S
C526       C1103   1.426       .  A
C527        C531   1.522       .  S
C527       C1102   1.426   1_545  A
C527        C528   1.410       .  A
C528       C1095   1.405   1_545  A
C528        H532   1.079       .  S
C529        F542   1.384       .  S
C529        F543   1.383       .  S
C529        F544   1.381       .  S
C531        F539   1.383       .  S
C531        F540   1.382       .  S
C531        F541   1.385       .  S
C545       C1122   1.407       .  A
C545        C550   1.405       .  A
C545        H555   1.083       .  S
C546        C551   1.487       .  S
C546       C1121   1.407       .  A
C546        C547   1.422   1_565  A
C547        C552   1.518       .  S
C547        C548   1.402       .  A
C548       C1125   1.400   1_545  A
C548        H553   1.084       .  S
C549       C1124   1.400       .  A
C549        C550   1.414       .  A
C550        C554   1.518       .  S
C551        C556   1.406   1_565  A
C551       C1136   1.389       .  A
C552        F568   1.384       .  S
C552        F569   1.374       .  S
C552        F570   1.383       .  S
C554        F565   1.385       .  S
C554        F566   1.382       .  S
C554        F567   1.383       .  S
C556        C561   1.523       .  S
C556        C557   1.416       .  A
C557       C1134   1.418   1_545  A
C557        H562   1.056       .  S
C558       C1133   1.416       .  A
C558        C559   1.478       .  A
C559        C563   1.539       .  S
C559        C560   1.404       .  A
C560       C1127   1.389       .  A
C560        H564   1.085       .  S
C561        F574   1.383       .  S
C561        F575   1.381       .  S
C561        F576   1.375       .  S
C563        F571   1.385       .  S
C563        F572   1.368       .  S
C563        F573   1.381       .  S
C577        C608   1.732   1_546  S
C577       C1093   1.706       .  S
C577        C846   1.623   1_546  S
O578       Cu586   2.006       .  S
O578        C588   1.275       .  A
O579       Cu586   2.019       .  S
O579        C589   1.279       .  A
O580       Cu586   2.014       .  S
O580        C590   1.278       .  A
O581       Cu586   2.014       .  S
O581        C591   1.281       .  A
O582       Cu587   1.998       .  S
O583       Cu587   1.992       .  S
O584       Cu587   2.023       .  S
O585       Cu587   2.014       .  S
C588        C782   1.489       .  S
C589        C814   1.501       .  S
C590        C837   1.470       .  S
C591        C741   1.483       .  S
C592        C608   1.722   1_545  S
C592       C2190   1.680   1_554  S
C592       C1925   1.660   1_545  S
C593        C677   1.641       .  S
C593       C1006   1.639       .  S
O594       Cu602   2.028       .  S
O594        C604   1.282       .  A
O595       Cu602   2.022       .  S
O595        C605   1.278       .  A
O596       Cu602   1.984       .  S
O596        C606   1.272       .  A
O597       Cu602   1.993       .  S
O597        C607   1.275       .  A
O598       Cu603   2.034       .  S
O598        C607   1.281       .  A
O599       Cu603   2.021       .  S
O599        C606   1.279       .  A
O600       Cu603   2.011       .  S
O600        C605   1.279       .  A
O601       Cu603   2.015       .  S
O601        C604   1.276       .  A
Cu602      Cu603   2.367       .  S
C604        C645   1.498       .  S
C605        C686   1.503       .  S
C606        C709   1.463       .  S
C607        C613   1.487       .  S
C608        C910   1.644   1_554  S
C608        C654   1.684       .  S
C609        C610   1.405       .  A
C609        C614   1.409       .  A
C609        H619   1.078       .  S
C610        C615   1.495       .  S
C610        C611   1.415       .  A
C611        C616   1.520       .  S
C611        C612   1.408       .  A
C612        C613   1.407       .  A
C612        H617   1.083       .  S
C613        C614   1.419       .  A
C614        C618   1.519       .  S
C615        C620   1.397       .  A
C615        C624   1.371       .  A
C616        F632   1.382       .  S
C616        F633   1.381       .  S
C616        F634   1.385       .  S
C618        F629   1.385       .  S
C618        F630   1.382   1_455  S
C618        F631   1.383       .  S
C620        C625   1.524       .  S
C620        C621   1.429       .  A
C621        C622   1.443       .  A
C621        H626   1.050       .  S
C622        C896   1.654       .  S
C622        C623   1.485       .  A
C623        C627   1.536       .  S
C623        C624   1.412       .  A
C624        H628   1.087       .  S
C625        F638   1.364       .  S
C625        F639   1.382       .  S
C625        F640   1.381       .  S
C627        F635   1.385       .  S
C627        F924   1.369       .  S
C627        F637   1.378       .  S
F636        C915   1.368       .  S
C641        C642   1.403       .  A
C641        C646   1.415       .  A
C641        H651   1.083       .  S
C642        C647   1.501       .  S
C642        C643   1.420       .  A
C643        C648   1.518       .  S
C643        C644   1.408       .  A
C644        C645   1.404       .  A
C644        H649   1.083       .  S
C645        C646   1.426       .  A
C646        C650   1.520       .  S
C647        C652   1.403       .  A
C647        C656   1.391       .  A
C648        F664   1.380       .  S
C648        F665   1.381       .  S
C648        F666   1.385       .  S
C650        F661   1.382       .  S
C650        F662   1.385   1_455  S
C650        F663   1.383   1_455  S
C652        C657   1.527       .  S
C652        C653   1.422       .  A
C653        C654   1.442       .  A
C653        H658   1.071       .  S
C654        C655   1.462       .  A
C655        C659   1.537       .  S
C655        C656   1.419       .  A
C656        H660   1.084       .  S
C657        F670   1.383       .  S
C657        F671   1.383       .  S
C657        F672   1.382       .  S
C659        F667   1.381       .  S
C659        F668   1.365   1_565  S
C659        F669   1.372       .  S
C673        C674   1.380       .  A
C673        C678   1.414       .  A
C673        H683   1.083       .  S
C674        C679   1.490       .  S
C674        C675   1.396       .  A
C675        C680   1.516       .  S
C675        C676   1.414       .  A
C676        C677   1.417       .  A
C676        H681   1.064       .  S
C677        C678   1.490       .  A
C678        C682   1.549       .  S
C679        C684   1.415       .  A
C679        C688   1.402       .  A
C680        F696   1.381       .  S
C680        F697   1.382       .  S
C680        F698   1.382       .  S
C682        F693   1.388       .  S
C682        F694   1.366       .  S
C682        F983   1.354       .  S
C684        C689   1.520   1_455  S
C684        C685   1.405       .  A
C685        C686   1.411       .  A
C685        H690   1.084       .  S
C686        C687   1.428       .  A
C687        C691   1.521       .  S
C687        C688   1.410       .  A
C688        H692   1.080       .  S
C689        F702   1.383       .  S
C689        F703   1.383       .  S
C689        F704   1.383       .  S
C691        F699   1.385       .  S
C691        F700   1.383       .  S
C691        F701   1.383       .  S
F695        C970   1.356   1_554  S
C705        C706   1.403       .  A
C705        C710   1.399       .  A
C705        H715   1.083       .  S
C706        C711   1.480       .  S
C706        C707   1.416       .  A
C707        C712   1.515       .  S
C707        C708   1.403       .  A
C708        C709   1.403       .  A
C708        H713   1.085       .  S
C709        C710   1.415       .  A
C710        C714   1.518       .  S
C711        C716   1.402       .  A
C711        C720   1.389       .  A
C712        F728   1.379       .  S
C712        F729   1.383       .  S
C712        F730   1.384       .  S
C714        F725   1.382       .  S
C714        F726   1.384       .  S
C714        F727   1.380       .  S
C716        C721   1.519       .  S
C716        C717   1.411       .  A
C717        C718   1.400       .  A
C717        H722   1.024       .  S
C718        C881   1.634       .  S
C718        C719   1.464       .  A
C719        C723   1.533       .  S
C719        C720   1.409       .  A
C720        H724   1.082       .  S
C721       F1886   1.378   1_455  S
C721        F735   1.382       .  S
C721        F736   1.381       .  S
C723        F731   1.387       .  S
C723        F732   1.351   1_554  S
C723        F733   1.378       .  S
F734       C1873   1.379       .  S
C737        C742   1.412       .  A
C737        H747   1.083       .  S
C738        C743   1.493   1_565  S
C738        C739   1.421       .  A
C739        C744   1.512       .  S
C739        C740   1.400       .  A
C740        C741   1.397       .  A
C740        H745   1.083       .  S
C742        C746   1.519       .  S
C743        C748   1.388   1_545  A
C744        F760   1.380       .  S
C744        F761   1.379       .  S
C744        F762   1.385       .  S
C746        F757   1.385       .  S
C746        F758   1.383       .  S
C746        F759   1.384       .  S
C748        C753   1.522       .  S
C748        C749   1.417       .  A
C749        C750   1.441   1_565  A
C749       H1906   1.015       .  S
C750       C2032   1.677       .  S
C751        C755   1.538       .  S
C751        C752   1.425       .  A
C752        H756   1.087       .  S
C753       F1918   1.374       .  S
C753        F767   1.382       .  S
C753        F768   1.382       .  S
H754       C1901   1.016       .  S
C755        F763   1.385       .  S
C755       F1052   1.349       .  S
C755        F765   1.381       .  S
F764       C1043   1.349   1_554  S
F766       C1905   1.374       .  S
C769        C774   1.421       .  A
C769        H779   1.086       .  S
C770        C775   1.494       .  S
C770        C771   1.394       .  A
C771        C776   1.521       .  S
C771        C772   1.419       .  A
C772       H1929   1.041       .  S
C773       C1744   1.664   1_565  S
C773        C774   1.487       .  A
C774        C778   1.528   1_554  S
C775        C780   1.419       .  A
C776        F792   1.382       .  S
C776        F793   1.383       .  S
C776       F1946   1.373       .  S
H777       C1924   1.039       .  S
C778        F789   1.375       .  S
C778        F790   1.386   1_556  S
C778       F1079   1.358       .  S
C780        C785   1.515       .  S
C780        C781   1.405       .  A
C781        H786   1.083       .  S
C782        C783   1.423       .  A
C783        C787   1.521       .  S
C783        C784   1.412       .  A
C784        H788   1.083       .  S
C785        F798   1.385       .  S
C785        F799   1.380       .  S
C785        F800   1.379       .  S
C787        F795   1.383       .  S
C787        F796   1.384       .  S
C787        F797   1.385       .  S
F791       C1066   1.358       .  S
F794       C1928   1.372       .  S
C801        C806   1.420       .  A
C801        H811   1.081       .  S
C802        C807   1.504       .  S
C802        C803   1.413       .  A
C803        C808   1.525       .  S
C803        C804   1.418   1_565  A
C804        C805   1.460       .  A
C804        H809   1.060       .  S
C805        C865   1.710       .  S
C806        C810   1.544       .  S
C807        C812   1.422       .  A
C808        F824   1.383   1_565  S
C808        F825   1.376       .  S
C808        F826   1.385   1_565  S
C810        F821   1.383       .  S
C810        F822   1.372       .  S
C810        F823   1.368       .  S
C812        C817   1.520       .  S
C812        C813   1.410       .  A
C813        C814   1.409       .  A
C813        H818   1.084       .  S
C815        C819   1.522       .  S
C815        C816   1.411       .  A
C816        H820   1.074       .  S
C817        F830   1.384       .  S
C817        F831   1.383       .  S
C817        F832   1.381       .  S
C819        F827   1.384       .  S
C819        F828   1.383       .  S
C819        F829   1.385       .  S
C833        C838   1.404       .  A
C833        H843   1.083       .  S
C834        C839   1.488       .  S
C834        C835   1.422       .  A
C835        C840   1.518       .  S
C835        C836   1.401       .  A
C836        H841   1.085       .  S
C837        C838   1.413       .  A
C838        C842   1.518       .  S
C839        C844   1.406       .  A
C840        F856   1.384       .  S
C840        F857   1.374       .  S
C840        F858   1.383       .  S
C842        F853   1.385       .  S
C842        F854   1.382       .  S
C842        F855   1.383       .  S
C844        C849   1.524       .  S
C844        C845   1.417       .  A
C845        H850   1.056       .  S
C846        C847   1.479       .  A
C847        C851   1.538       .  S
C847        C848   1.403       .  A
C848        H852   1.086       .  S
C849        F862   1.383       .  S
C849        F863   1.382       .  S
C849        F864   1.377       .  S
C851        F859   1.383       .  S
C851        F860   1.366   1_554  S
C851        F861   1.381       .  S
C865        C896   1.734   1_545  S
C865       C1134   1.621   1_545  S
O866       Cu874   2.014       .  S
O866        C876   1.277       .  A
O867       Cu874   2.023       .  S
O867        C877   1.280       .  A
O868       Cu874   2.008       .  S
O868        C878   1.276       .  A
O869       Cu874   2.020       .  S
O869        C879   1.280       .  A
O870       Cu875   1.995       .  S
O871       Cu875   1.987       .  S
O872       Cu875   2.023       .  S
O873       Cu875   2.015       .  S
C876       C1070   1.490       .  S
C877       C1102   1.502       .  S
C878       C1125   1.473       .  S
C879       C1029   1.492       .  S
C880        C896   1.727   1_545  S
C880       C1902   1.668       .  S
C880       C2213   1.659   1_545  S
C881        C965   1.647   1_554  S
O882       Cu890   2.049       .  S
O882        C892   1.285       .  A
O883       Cu890   2.046       .  S
O883        C893   1.282       .  A
O884       Cu890   1.987       .  S
O884        C894   1.273       .  A
O885       Cu890   1.991       .  S
O885        C895   1.274       .  A
O886       Cu891   2.022       .  S
O886        C895   1.279       .  A
O887       Cu891   2.014       .  S
O887        C894   1.279       .  A
O888       Cu891   2.007       .  S
O888        C893   1.278       .  A
O889       Cu891   2.010       .  S
O889        C892   1.275       .  A
Cu890      Cu891   2.366       .  S
C892        C933   1.503       .  S
C893        C974   1.509       .  S
C894        C997   1.462       .  S
C895        C901   1.482       .  S
C896        C942   1.678       .  S
C897        C898   1.401       .  A
C897        C902   1.404       .  A
C897        H907   1.078       .  S
C898        C903   1.484       .  S
C898        C899   1.413       .  A
C899        C904   1.521       .  S
C899        C900   1.407       .  A
C900        C901   1.409       .  A
C900        H905   1.083       .  S
C901        C902   1.418       .  A
C902        C906   1.519       .  S
C903        C908   1.394       .  A
C903        C912   1.371       .  A
C904        F920   1.383       .  S
C904        F921   1.381       .  S
C904        F922   1.384       .  S
C906        F917   1.385       .  S
C906        F918   1.383   1_455  S
C906        F919   1.383       .  S
C908        C913   1.527       .  S
C908        C909   1.423       .  A
C909        C910   1.443       .  A
C909        H914   1.049       .  S
C910        C911   1.483       .  A
C911        C915   1.536   1_556  S
C911        C912   1.408       .  A
C912        H916   1.087       .  S
C913        F926   1.368       .  S
C913        F927   1.382       .  S
C913        F928   1.381       .  S
C915        F923   1.384   1_554  S
C915        F925   1.379       .  S
C929        C930   1.400       .  A
C929        C934   1.413       .  A
C929        H939   1.083       .  S
C930        C935   1.498       .  S
C930        C931   1.419       .  A
C931        C936   1.519       .  S
C931        C932   1.412       .  A
C932        C933   1.407       .  A
C932        H937   1.083       .  S
C933        C934   1.430       .  A
C934        C938   1.521       .  S
C935        C940   1.403       .  A
C935        C944   1.389       .  A
C936        F952   1.381       .  S
C936        F953   1.381       .  S
C936        F954   1.385       .  S
C938        F949   1.380       .  S
C938        F950   1.385       .  S
C938        F951   1.382   1_455  S
C940        C945   1.527       .  S
C940        C941   1.420       .  A
C941        C942   1.440       .  A
C941        H946   1.070       .  S
C942        C943   1.463       .  A
C943        C947   1.538       .  S
C943        C944   1.418       .  A
C944        H948   1.084       .  S
C945        F958   1.384       .  S
C945        F959   1.383       .  S
C945        F960   1.381       .  S
C947        F955   1.380       .  S
C947        F956   1.366   1_565  S
C947        F957   1.371       .  S
C961        C962   1.382       .  A
C961        C966   1.418       .  A
C961        H971   1.083       .  S
C962        C967   1.495       .  S
C962        C963   1.397       .  A
C963        C968   1.516       .  S
C963        C964   1.416       .  A
C964        C965   1.419       .  A
C964        H969   1.064       .  S
C965        C966   1.491       .  A
C966        C970   1.550       .  S
C967        C972   1.413       .  A
C967        C976   1.405       .  A
C968        F984   1.381       .  S
C968        F985   1.382       .  S
C968        F986   1.381       .  S
C970        F981   1.387       .  S
C970        F982   1.365   1_556  S
C972        C977   1.520   1_455  S
C972        C973   1.408       .  A
C973        C974   1.414       .  A
C973        H978   1.084       .  S
C974        C975   1.426       .  A
C975        C979   1.519       .  S
C975        C976   1.413       .  A
C976        H980   1.081       .  S
C977        F990   1.383       .  S
C977        F991   1.383       .  S
C977        F992   1.383       .  S
C979        F987   1.385       .  S
C979        F988   1.383       .  S
C979        F989   1.384       .  S
C993        C994   1.403       .  A
C993        C998   1.399       .  A
C993       H1003   1.085       .  S
C994        C999   1.478       .  S
C994        C995   1.415       .  A
C995       C1000   1.515       .  S
C995        C996   1.401       .  A
C996        C997   1.401       .  A
C996       H1001   1.085       .  S
C997        C998   1.415       .  A
C998       C1002   1.517       .  S
C999       C1004   1.400       .  A
C999       C1008   1.384       .  A
C1000      F1016   1.378       .  S
C1000      F1017   1.383       .  S
C1000      F1018   1.384       .  S
C1002      F1013   1.383       .  S
C1002      F1014   1.384       .  S
C1002      F1015   1.380       .  S
C1004      C1009   1.521       .  S
C1004      C1005   1.414       .  A
C1005      C1006   1.406       .  A
C1005      H1010   1.036       .  S
C1006      C1007   1.464       .  A
C1007      C1011   1.530       .  S
C1007      C1008   1.406       .  A
C1008      H1012   1.081       .  S
C1009      F2174   1.380   1_455  S
C1009      F1023   1.383       .  S
C1009      F1024   1.382       .  S
C1011      F1019   1.387       .  S
C1011      F1020   1.350       .  S
C1011      F1021   1.378       .  S
F1022      C2161   1.381       .  S
C1025      C1030   1.410       .  A
C1025      H1035   1.082       .  S
C1026      C1031   1.502   1_565  S
C1026      C1027   1.422       .  A
C1027      C1032   1.515       .  S
C1027      C1028   1.408       .  A
C1028      C1029   1.402       .  A
C1028      H1033   1.084       .  S
C1030      C1034   1.519       .  S
C1031      C1036   1.391   1_545  A
C1032      F1048   1.381       .  S
C1032      F1049   1.379       .  S
C1032      F1050   1.385       .  S
C1034      F1045   1.385       .  S
C1034      F1046   1.382       .  S
C1034      F1047   1.383       .  S
C1036      C1041   1.519       .  S
C1036      C1037   1.419       .  A
C1037      C1038   1.439   1_565  A
C1037      H2194   1.025       .  S
C1038      C1744   1.679   1_556  S
C1039      C1043   1.536       .  S
C1039      C1040   1.425       .  A
C1040      H1044   1.088       .  S
C1041      F2206   1.374       .  S
C1041      F1055   1.381       .  S
C1041      F1056   1.382       .  S
H1042      C2189   1.036       .  S
C1043      F1051   1.384       .  S
C1043      F1053   1.381   1_556  S
F1054      C2193   1.372       .  S
C1057      C1062   1.421       .  A
C1057      H1067   1.087       .  S
C1058      C1063   1.498       .  S
C1058      C1059   1.395       .  A
C1059      C1064   1.519       .  S
C1059      C1060   1.421       .  A
C1060      H2217   1.042       .  S
C1061      C2032   1.666   1_565  S
C1061      C1062   1.489       .  A
C1062      C1066   1.526       .  S
C1063      C1068   1.419       .  A
C1064      F1080   1.382       .  S
C1064      F1081   1.383       .  S
C1064      F2234   1.374       .  S
H1065      C2212   1.040       .  S
C1066      F1077   1.372       .  S
C1066      F1078   1.387       .  S
C1068      C1073   1.515       .  S
C1068      C1069   1.406       .  A
C1069      H1074   1.083       .  S
C1070      C1071   1.422       .  A
C1071      C1075   1.519       .  S
C1071      C1072   1.411       .  A
C1072      H1076   1.083       .  S
C1073      F1086   1.385       .  S
C1073      F1087   1.380       .  S
C1073      F1088   1.380       .  S
C1075      F1083   1.382       .  S
C1075      F1084   1.384       .  S
C1075      F1085   1.384       .  S
F1082      C2216   1.373       .  S
C1089      C1094   1.414       .  A
C1089      H1099   1.082       .  S
C1090      C1095   1.501   1_545  S
C1090      C1091   1.412   1_545  A
C1091      C1096   1.524       .  S
C1091      C1092   1.417   1_565  A
C1092      C1093   1.459       .  A
C1092      H1097   1.062   1_545  S
C1094      C1098   1.545       .  S
C1095      C1100   1.422       .  A
C1096      F1112   1.381   1_565  S
C1096      F1113   1.380       .  S
C1096      F1114   1.384   1_565  S
C1098      F1109   1.386       .  S
C1098      F1110   1.372       .  S
C1098      F1111   1.365       .  S
C1100      C1105   1.520       .  S
C1100      C1101   1.409       .  A
C1101      C1102   1.408       .  A
C1101      H1106   1.084       .  S
C1103      C1107   1.521       .  S
C1103      C1104   1.410       .  A
C1104      H1108   1.078       .  S
C1105      F1118   1.383       .  S
C1105      F1119   1.383       .  S
C1105      F1120   1.380       .  S
C1107      F1115   1.383       .  S
C1107      F1116   1.383       .  S
C1107      F1117   1.385       .  S
C1121      C1126   1.405       .  A
C1121      H1131   1.083       .  S
C1122      C1127   1.486       .  S
C1122      C1123   1.421       .  A
C1123      C1128   1.517       .  S
C1123      C1124   1.401       .  A
C1124      H1129   1.085       .  S
C1125      C1126   1.414       .  A
C1126      C1130   1.519       .  S
C1127      C1132   1.406       .  A
C1128      F1144   1.384       .  S
C1128      F1145   1.375       .  S
C1128      F1146   1.383       .  S
C1130      F1141   1.385       .  S
C1130      F1142   1.383       .  S
C1130      F1143   1.383       .  S
C1132      C1137   1.524       .  S
C1132      C1133   1.416       .  A
C1133      H1138   1.053       .  S
C1134      C1135   1.479       .  A
C1135      C1139   1.539       .  S
C1135      C1136   1.404       .  A
C1136      H1140   1.085       .  S
C1137      F1150   1.383       .  S
C1137      F1151   1.381       .  S
C1137      F1152   1.375       .  S
C1139      F1147   1.385       .  S
C1139      F1148   1.368       .  S
C1139      F1149   1.382       .  S
C1153      C2033   1.756   1_556  S
C1153      C1184   1.734   1_556  S
C1153      C1669   1.709       .  S
C1153      C1422   1.627   1_556  S
O1154     Cu1162   2.006       .  S
O1154      C1164   1.276       .  A
O1155     Cu1162   2.022       .  S
O1155      C1165   1.279       .  A
O1156     Cu1162   2.023       .  S
O1156      C1166   1.279       .  A
O1157     Cu1162   2.023       .  S
O1157      C1167   1.281       .  A
O1158     Cu1163   1.996       .  S
O1158      C1743   1.273       .  A
O1159     Cu1163   1.990       .  S
O1159      C1742   1.274   1_545  A
O1160     Cu1163   2.038       .  S
O1160      C1741   1.281   1_545  A
O1161     Cu1163   2.034       .  S
O1161      C1740   1.282   1_545  A
Cu1162    Cu1739   2.366       .  S
Cu1163    Cu1738   2.367   1_545  S
C1164      O1737   1.280       .  A
C1164      C1358   1.487       .  S
C1165      O1736   1.279       .  A
C1165      C1390   1.503       .  S
C1166      O1735   1.276       .  A
C1166      C1413   1.477       .  S
C1167      O1734   1.274       .  A
C1167      C1317   1.485       .  S
C1168      C2033   1.753       .  S
C1168      C1184   1.724       .  S
C1169      C2017   1.757       .  S
C1169      C2032   1.758       .  S
C1169      C1253   1.647       .  S
C1169      C1582   1.640       .  S
O1170     Cu1178   2.042       .  S
O1170      C1180   1.283       .  A
O1171     Cu1178   2.033       .  S
O1171      C1181   1.280       .  A
O1172     Cu1178   1.983       .  S
O1172      C1182   1.273       .  A
O1173     Cu1178   1.992       .  S
O1173      C1183   1.275       .  A
O1174     Cu1179   2.021       .  S
O1174      C1183   1.279       .  A
O1175     Cu1179   2.010       .  S
O1175      C1182   1.278       .  A
O1176     Cu1179   2.013       .  S
O1176      C1181   1.278       .  A
O1177     Cu1179   2.015       .  S
O1177      C1180   1.276       .  A
Cu1178    Cu1179   2.366       .  S
C1180      C1221   1.504       .  S
C1181      C1262   1.507       .  S
C1182      C1285   1.459       .  S
C1183      C1189   1.480       .  S
C1184      C1486   1.644   1_554  S
C1184      C1230   1.678       .  S
C1185      C1186   1.403       .  A
C1185      C1190   1.405       .  A
C1185      H1195   1.078       .  S
C1186      C1191   1.490       .  S
C1186      C1187   1.414       .  A
C1187      C1192   1.521       .  S
C1187      C1188   1.407       .  A
C1188      C1189   1.407       .  A
C1188      H1193   1.083       .  S
C1189      C1190   1.417       .  A
C1190      C1194   1.520       .  S
C1191      C1196   1.396       .  A
C1191      C1200   1.370       .  A
C1192      F1208   1.383       .  S
C1192      F1209   1.382       .  S
C1192      F1210   1.384       .  S
C1194      F1205   1.385       .  S
C1194      F1206   1.383       .  S
C1194      F1207   1.384       .  S
C1196      C1201   1.524       .  S
C1196      C1197   1.426       .  A
C1197      C1198   1.442       .  A
C1197      H1202   1.050       .  S
C1198      C1472   1.650       .  S
C1198      C1199   1.485       .  A
C1199      C1203   1.538       .  S
C1199      C1200   1.410       .  A
C1200      H1204   1.086       .  S
C1201      F1214   1.366       .  S
C1201      F1215   1.382       .  S
C1201      F1216   1.382       .  S
C1203      F1211   1.384       .  S
C1203      F1500   1.368       .  S
C1203      F1213   1.380       .  S
F1212      C1491   1.368       .  S
C1217      C1218   1.400       .  A
C1217      C1222   1.413       .  A
C1217      H1227   1.083       .  S
C1218      C1223   1.497       .  S
C1218      C1219   1.417       .  A
C1219      C1224   1.518       .  S
C1219      C1220   1.412       .  A
C1220      C1221   1.408       .  A
C1220      H1225   1.083       .  S
C1221      C1222   1.430       .  A
C1222      C1226   1.521       .  S
C1223      C1228   1.403       .  A
C1223      C1232   1.390       .  A
C1224      F1240   1.382       .  S
C1224      F1241   1.382       .  S
C1224      F1242   1.384       .  S
C1226      F1237   1.382       .  S
C1226      F1238   1.385       .  S
C1226      F1239   1.383       .  S
C1228      C1233   1.527       .  S
C1228      C1229   1.419       .  A
C1229      C1230   1.440       .  A
C1229      H1234   1.070       .  S
C1230      C1231   1.460       .  A
C1231      C1235   1.537       .  S
C1231      C1232   1.417       .  A
C1232      H1236   1.084       .  S
C1233      F1246   1.384       .  S
C1233      F1247   1.382       .  S
C1233      F1248   1.381       .  S
C1235      F1243   1.381       .  S
C1235      F1244   1.366       .  S
C1235      F1245   1.372       .  S
C1249      C1250   1.382       .  A
C1249      C1254   1.418       .  A
C1249      H1259   1.083       .  S
C1250      C1255   1.497       .  S
C1250      C1251   1.398       .  A
C1251      C1256   1.519       .  S
C1251      C1252   1.417       .  A
C1252      C1253   1.419       .  A
C1252      H1257   1.061       .  S
C1253      C1254   1.490       .  A
C1254      C1258   1.550       .  S
C1255      C1260   1.417       .  A
C1255      C1264   1.404       .  A
C1256      F1272   1.380       .  S
C1256      F1273   1.382       .  S
C1256      F1274   1.381       .  S
C1258      F1269   1.387       .  S
C1258      F1270   1.364       .  S
C1258      F1559   1.354       .  S
C1260      C1265   1.520       .  S
C1260      C1261   1.409       .  A
C1261      C1262   1.412       .  A
C1261      H1266   1.084       .  S
C1262      C1263   1.426       .  A
C1263      C1267   1.520       .  S
C1263      C1264   1.411       .  A
C1264      H1268   1.081       .  S
C1265      F1278   1.383       .  S
C1265      F1279   1.383       .  S
C1265      F1280   1.383       .  S
C1267      F1275   1.385       .  S
C1267      F1276   1.382       .  S
C1267      F1277   1.384       .  S
F1271      C1546   1.355   1_554  S
C1281      C1282   1.404       .  A
C1281      C1286   1.400       .  A
C1281      H1291   1.084       .  S
C1282      C1287   1.477       .  S
C1282      C1283   1.414       .  A
C1283      C1288   1.517       .  S
C1283      C1284   1.402       .  A
C1284      C1285   1.403       .  A
C1284      H1289   1.085       .  S
C1285      C1286   1.414       .  A
C1286      C1290   1.520       .  S
C1287      C1292   1.400       .  A
C1287      C1296   1.385       .  A
C1288      F1304   1.380       .  S
C1288      F1305   1.382       .  S
C1288      F1306   1.384       .  S
C1290      F1301   1.383       .  S
C1290      F1302   1.383       .  S
C1290      F1303   1.380       .  S
C1292      C1297   1.523       .  S
C1292      C1293   1.413       .  A
C1293      C1294   1.405       .  A
C1293      H1298   1.030       .  S
C1294      C1457   1.638       .  S
C1294      C1295   1.469       .  A
C1295      C1299   1.532       .  S
C1295      C1296   1.406       .  A
C1296      H1300   1.083       .  S
C1297      F1311   1.382       .  S
C1297      F1312   1.381       .  S
C1299      F1307   1.387       .  S
C1299      F1308   1.347   1_554  S
C1299      F1309   1.377       .  S
C1313      C1890   1.400       .  A
C1313      C1318   1.407       .  A
C1313      H1323   1.082       .  S
C1314      C1319   1.500       .  S
C1314      C1889   1.403       .  A
C1314      C1315   1.422       .  A
C1315      C1320   1.512       .  S
C1315      C1316   1.405       .  A
C1316      C1317   1.398       .  A
C1316      H1321   1.083       .  S
C1317      C1894   1.422       .  A
C1318      C1322   1.518       .  S
C1318      C1893   1.421       .  A
C1319      C1324   1.390       .  A
C1319      C1904   1.378       .  A
C1320      F1336   1.380       .  S
C1320      F1337   1.381       .  S
C1320      F1338   1.385       .  S
C1322      F1333   1.384       .  S
C1322      F1334   1.382       .  S
C1322      F1335   1.382       .  S
C1324      C1329   1.520   1_655  S
C1324      C1325   1.417   1_655  A
C1325      C1326   1.436       .  A
C1326      C1903   1.493   1_455  A
C1327      C1331   1.541       .  S
C1327      C1902   1.494   1_655  A
C1327      C1328   1.421       .  A
C1328      C1895   1.376       .  A
C1328      H1332   1.087       .  S
C1329      F1343   1.381       .  S
C1329      F1344   1.382   1_455  S
C1331      F1339   1.385       .  S
C1331      F1628   1.350       .  S
C1331      F1341   1.379       .  S
F1340      C1619   1.348   1_554  S
C1345      C1922   1.374       .  A
C1345      C1350   1.419       .  A
C1345      H1355   1.087       .  S
C1346      C1351   1.500       .  S
C1346      C1921   1.376       .  A
C1346      C1347   1.396   1_665  A
C1347      C1352   1.520       .  S
C1347      C1348   1.419       .  A
C1348      C1925   1.420   1_545  A
C1349      C1924   1.418       .  A
C1349      C1350   1.485   1_455  A
C1350      C1354   1.523       .  S
C1351      C1356   1.419   1_565  A
C1351      C1936   1.402       .  A
C1352      F1368   1.382   1_545  S
C1352      F1369   1.383   1_455  S
C1354      F1365   1.368   1_554  S
C1354      F1366   1.386       .  S
C1354      F1655   1.358   1_554  S
C1356      C1361   1.516       .  S
C1356      C1357   1.410       .  A
C1357      C1934   1.404   1_545  A
C1357      H1362   1.083       .  S
C1358      C1933   1.403       .  A
C1358      C1359   1.422       .  A
C1359      C1363   1.519       .  S
C1359      C1360   1.408       .  A
C1360      C1927   1.401       .  A
C1360      H1364   1.083       .  S
C1361      F1374   1.384       .  S
C1361      F1375   1.380       .  S
C1361      F1376   1.380       .  S
C1363      F1371   1.382       .  S
C1363      F1372   1.383       .  S
C1363      F1373   1.385       .  S
F1367      C1642   1.357       .  S
C1377      C1954   1.411   1_545  A
C1377      C1382   1.412       .  A
C1377      H1387   1.081       .  S
C1378      C1383   1.508       .  S
C1378      C1953   1.411       .  A
C1378      C1379   1.416       .  A
C1379      C1384   1.526       .  S
C1379      C1380   1.421       .  A
C1380      C1381   1.459       .  A
C1380      H1385   1.060       .  S
C1381      C1441   1.715       .  S
C1381      C1958   1.447       .  A
C1382      C1386   1.545       .  S
C1382      C1957   1.450       .  A
C1383      C1388   1.422       .  A
C1383      C1968   1.409       .  A
C1384      F1400   1.383       .  S
C1384      F1401   1.378       .  S
C1384      F1402   1.385       .  S
C1386      F1397   1.386       .  S
C1386      F1398   1.372       .  S
C1386      F1399   1.370       .  S
C1388      C1393   1.519       .  S
C1388      C1389   1.411       .  A
C1389      C1390   1.409       .  A
C1389      H1394   1.084       .  S
C1390      C1967   1.423       .  A
C1391      C1395   1.521       .  S
C1391      C1966   1.424   1_545  A
C1391      C1392   1.411       .  A
C1392      C1959   1.407   1_545  A
C1392      H1396   1.078       .  S
C1393      F1406   1.383       .  S
C1393      F1407   1.383       .  S
C1393      F1408   1.380       .  S
C1395      F1403   1.383       .  S
C1395      F1404   1.383       .  S
C1395      F1405   1.384       .  S
C1409      C1986   1.408       .  A
C1409      C1414   1.409       .  A
C1409      H1419   1.083       .  S
C1410      C1415   1.491       .  S
C1410      C1985   1.409       .  A
C1410      C1411   1.422   1_565  A
C1411      C1416   1.518       .  S
C1411      C1412   1.403       .  A
C1412      C1989   1.400   1_545  A
C1412      H1417   1.085       .  S
C1413      C1988   1.399       .  A
C1413      C1414   1.415       .  A
C1414      C1418   1.518       .  S
C1415      C1420   1.406   1_565  A
C1415      C2000   1.388       .  A
C1416      F1432   1.384       .  S
C1416      F1433   1.375       .  S
C1416      F1434   1.383       .  S
C1418      F1429   1.385       .  S
C1418      F1430   1.382       .  S
C1418      F1431   1.383       .  S
C1420      C1425   1.523       .  S
C1420      C1421   1.418       .  A
C1421      C1998   1.416   1_545  A
C1421      H1426   1.054       .  S
C1422      C1997   1.416       .  A
C1422      C1423   1.481       .  A
C1423      C1427   1.538       .  S
C1423      C1424   1.408       .  A
C1424      C1991   1.387       .  A
C1424      H1428   1.086       .  S
C1425      F1438   1.383       .  S
C1425      F1439   1.381       .  S
C1425      F1440   1.377       .  S
C1427      F1435   1.381       .  S
C1427      F1436   1.369   1_554  S
C1427      F1437   1.380       .  S
C1441      C1745   1.756       .  S
C1441      C1472   1.737       .  S
C1441      C1710   1.626       .  S
O1442     Cu1450   2.010       .  S
O1442      C1452   1.276       .  A
O1443     Cu1450   2.017       .  S
O1443      C1453   1.279       .  A
O1444     Cu1450   2.018       .  S
O1444      C1454   1.279       .  A
O1445     Cu1450   2.019       .  S
O1445      C1455   1.281       .  A
O1446     Cu1451   2.010       .  S
O1446      C2031   1.276   1_545  A
O1447     Cu1451   2.003       .  S
O1447      C2030   1.277   1_545  A
O1448     Cu1451   2.019       .  S
O1448      C2029   1.278   1_545  A
O1449     Cu1451   2.014       .  S
O1449      C2028   1.280   1_545  A
Cu1450    Cu2027   2.368       .  S
Cu1451    Cu2026   2.366   1_545  S
C1452      O2025   1.281       .  A
C1452      C1646   1.490       .  S
C1453      O2024   1.279       .  A
C1453      C1678   1.502       .  S
C1454      O2023   1.274       .  A
C1454      C1701   1.472       .  S
C1455      O2022   1.274       .  A
C1455      C1605   1.480       .  S
C1456      C1745   1.753       .  S
C1456      C1472   1.727       .  S
C1457      C1729   1.762   1_554  S
C1457      C1744   1.757       .  S
C1457      C1541   1.649   1_554  S
O1458     Cu1466   2.042       .  S
O1458      C1468   1.284       .  A
O1459     Cu1466   2.035       .  S
O1459      C1469   1.280       .  A
O1460     Cu1466   1.990       .  S
O1460      C1470   1.274       .  A
O1461     Cu1466   1.995       .  S
O1461      C1471   1.276       .  A
O1462     Cu1467   2.019       .  S
O1462      C1471   1.278       .  A
O1463     Cu1467   2.011       .  S
O1463      C1470   1.278       .  A
O1464     Cu1467   2.009       .  S
O1464      C1469   1.279       .  A
O1465     Cu1467   2.015       .  S
O1465      C1468   1.276       .  A
Cu1466    Cu1467   2.366       .  S
C1468      C1509   1.505       .  S
C1469      C1550   1.508       .  S
C1470      C1573   1.462       .  S
C1471      C1477   1.482       .  S
C1472      C1518   1.675       .  S
C1473      C1474   1.402       .  A
C1473      C1478   1.406       .  A
C1473      H1483   1.079       .  S
C1474      C1479   1.489       .  S
C1474      C1475   1.414       .  A
C1475      C1480   1.520       .  S
C1475      C1476   1.406       .  A
C1476      C1477   1.407       .  A
C1476      H1481   1.083       .  S
C1477      C1478   1.418       .  A
C1478      C1482   1.519       .  S
C1479      C1484   1.396       .  A
C1479      C1488   1.373       .  A
C1480      F1496   1.382       .  S
C1480      F1497   1.381       .  S
C1480      F1498   1.385       .  S
C1482      F1493   1.385       .  S
C1482      F1494   1.382       .  S
C1482      F1495   1.383       .  S
C1484      C1489   1.524       .  S
C1484      C1485   1.422       .  A
C1485      C1486   1.438       .  A
C1485      H1490   1.050       .  S
C1486      C1487   1.486       .  A
C1487      C1491   1.538   1_556  S
C1487      C1488   1.411       .  A
C1488      H1492   1.087       .  S
C1489      F1502   1.366       .  S
C1489      F1503   1.381       .  S
C1489      F1504   1.381       .  S
C1491      F1499   1.384   1_554  S
C1491      F1501   1.379       .  S
C1505      C1506   1.401       .  A
C1505      C1510   1.415       .  A
C1505      H1515   1.083       .  S
C1506      C1511   1.499       .  S
C1506      C1507   1.417       .  A
C1507      C1512   1.518       .  S
C1507      C1508   1.411       .  A
C1508      C1509   1.408       .  A
C1508      H1513   1.082       .  S
C1509      C1510   1.430       .  A
C1510      C1514   1.521       .  S
C1511      C1516   1.404       .  A
C1511      C1520   1.391       .  A
C1512      F1528   1.381       .  S
C1512      F1529   1.381       .  S
C1512      F1530   1.384       .  S
C1514      F1525   1.382       .  S
C1514      F1526   1.385       .  S
C1514      F1527   1.383       .  S
C1516      C1521   1.527       .  S
C1516      C1517   1.421       .  A
C1517      C1518   1.440       .  A
C1517      H1522   1.071       .  S
C1518      C1519   1.459       .  A
C1519      C1523   1.536       .  S
C1519      C1520   1.418       .  A
C1520      H1524   1.084       .  S
C1521      F1534   1.384       .  S
C1521      F1535   1.383       .  S
C1521      F1536   1.381       .  S
C1523      F1531   1.382       .  S
C1523      F1532   1.367       .  S
C1523      F1533   1.372       .  S
C1537      C1538   1.380       .  A
C1537      C1542   1.416       .  A
C1537      H1547   1.084       .  S
C1538      C1543   1.498       .  S
C1538      C1539   1.401       .  A
C1539      C1544   1.517       .  S
C1539      C1540   1.419       .  A
C1540      C1541   1.418       .  A
C1540      H1545   1.060       .  S
C1541      C1542   1.493       .  A
C1542      C1546   1.552       .  S
C1543      C1548   1.413       .  A
C1543      C1552   1.404       .  A
C1544      F1560   1.382       .  S
C1544      F1561   1.381       .  S
C1544      F1562   1.382       .  S
C1546      F1557   1.388       .  S
C1546      F1558   1.366   1_556  S
C1548      C1553   1.520       .  S
C1548      C1549   1.409       .  A
C1549      C1550   1.414       .  A
C1549      H1554   1.081       .  S
C1550      C1551   1.427       .  A
C1551      C1555   1.521       .  S
C1551      C1552   1.412       .  A
C1552      H1556   1.078       .  S
C1553      F1566   1.384       .  S
C1553      F1567   1.381       .  S
C1553      F1568   1.378       .  S
C1555      F1563   1.386       .  S
C1555      F1564   1.383       .  S
C1555      F1565   1.383       .  S
C1569      C1570   1.405       .  A
C1569      C1574   1.401       .  A
C1569      H1579   1.084       .  S
C1570      C1575   1.481       .  S
C1570      C1571   1.416       .  A
C1571      C1576   1.516       .  S
C1571      C1572   1.403       .  A
C1572      C1573   1.402       .  A
C1572      H1577   1.085       .  S
C1573      C1574   1.414       .  A
C1574      C1578   1.520       .  S
C1575      C1580   1.399       .  A
C1575      C1584   1.384       .  A
C1576      F1592   1.379       .  S
C1576      F1593   1.383       .  S
C1576      F1594   1.383       .  S
C1578      F1589   1.383       .  S
C1578      F1590   1.383       .  S
C1578      F1591   1.380       .  S
C1580      C1585   1.520       .  S
C1580      C1581   1.413       .  A
C1581      C1582   1.403       .  A
C1581      H1586   1.036       .  S
C1582      C1583   1.469       .  A
C1583      C1587   1.530       .  S
C1583      C1584   1.408       .  A
C1584      H1588   1.082       .  S
C1585      F1599   1.383       .  S
C1585      F1600   1.381       .  S
C1587      F1595   1.388       .  S
C1587      F1596   1.349       .  S
C1587      F1597   1.379       .  S
C1601      C2178   1.403   1_545  A
C1601      C1606   1.411       .  A
C1601      H1611   1.083       .  S
C1602      C1607   1.501       .  S
C1602      C2177   1.404       .  A
C1602      C1603   1.423       .  A
C1603      C1608   1.509       .  S
C1603      C1604   1.403       .  A
C1604      C1605   1.394       .  A
C1604      H1609   1.084       .  S
C1605      C2182   1.420       .  A
C1606      C1610   1.518       .  S
C1606      C2181   1.422   1_545  A
C1607      C1612   1.391   1_655  A
C1607      C2192   1.377       .  A
C1608      F1624   1.381       .  S
C1608      F1625   1.380       .  S
C1608      F1626   1.385       .  S
C1610      F1621   1.384       .  S
C1610      F1622   1.383       .  S
C1610      F1623   1.384       .  S
C1612      C1617   1.520       .  S
C1612      C1613   1.417       .  A
C1613      C1614   1.438       .  A
C1614      C2191   1.495   1_455  A
C1615      C1619   1.530       .  S
C1615      C2190   1.490   1_655  A
C1615      C1616   1.425       .  A
C1616      C2183   1.376       .  A
C1616      H1620   1.088       .  S
C1617      F1631   1.381       .  S
C1617      F1632   1.382   1_455  S
C1619      F1627   1.384       .  S
C1619      F1629   1.383       .  S
C1633      C2210   1.376       .  A
C1633      C1638   1.420       .  A
C1633      H1643   1.087       .  S
C1634      C1639   1.499       .  S
C1634      C2209   1.376       .  A
C1634      C1635   1.394   1_665  A
C1635      C1640   1.517       .  S
C1635      C1636   1.419       .  A
C1636      C2213   1.421   1_545  A
C1637      C2212   1.422       .  A
C1637      C1638   1.482   1_455  A
C1638      C1642   1.523       .  S
C1639      C1644   1.419   1_565  A
C1639      C2224   1.403       .  A
C1640      F1656   1.382   1_545  S
C1640      F1657   1.382   1_455  S
C1642      F1653   1.367       .  S
C1642      F1654   1.386       .  S
C1644      C1649   1.512       .  S
C1644      C1645   1.404       .  A
C1645      C2222   1.401   1_545  A
C1645      H1650   1.083       .  S
C1646      C2221   1.403       .  A
C1646      C1647   1.424       .  A
C1647      C1651   1.520       .  S
C1647      C1648   1.412       .  A
C1648      C2215   1.403       .  A
C1648      H1652   1.083       .  S
C1649      F1662   1.385       .  S
C1649      F1663   1.378       .  S
C1649      F1664   1.378       .  S
C1651      F1659   1.382       .  S
C1651      F1660   1.383       .  S
C1651      F1661   1.385       .  S
C1665      C2242   1.414   1_545  A
C1665      C1670   1.418       .  A
C1665      H1675   1.082       .  S
C1666      C1671   1.504       .  S
C1666      C2241   1.412       .  A
C1666      C1667   1.414       .  A
C1667      C1672   1.526       .  S
C1667      C1668   1.418       .  A
C1668      C1669   1.457       .  A
C1668      H1673   1.063       .  S
C1669      C2246   1.447       .  A
C1670      C1674   1.545       .  S
C1670      C2245   1.447       .  A
C1671      C1676   1.423       .  A
C1671      C2256   1.407       .  A
C1672      F1688   1.380       .  S
C1672      F1689   1.379       .  S
C1672      F1690   1.384       .  S
C1674      F1685   1.386       .  S
C1674      F1686   1.373       .  S
C1674      F1687   1.363       .  S
C1676      C1681   1.518       .  S
C1676      C1677   1.408       .  A
C1677      C1678   1.408       .  A
C1677      H1682   1.084       .  S
C1678      C2255   1.425       .  A
C1679      C1683   1.522       .  S
C1679      C2254   1.425   1_545  A
C1679      C1680   1.413       .  A
C1680      C2247   1.408   1_545  A
C1680      H1684   1.078       .  S
C1681      F1694   1.383       .  S
C1681      F1695   1.383       .  S
C1681      F1696   1.380       .  S
C1683      F1691   1.383       .  S
C1683      F1692   1.383       .  S
C1683      F1693   1.385       .  S
C1697      C2274   1.408       .  A
C1697      C1702   1.407       .  A
C1697      H1707   1.083       .  S
C1698      C1703   1.490       .  S
C1698      C2273   1.408       .  A
C1698      C1699   1.422   1_565  A
C1699      C1704   1.518       .  S
C1699      C1700   1.403       .  A
C1700      C2277   1.400   1_545  A
C1700      H1705   1.084       .  S
C1701      C2276   1.400       .  A
C1701      C1702   1.413       .  A
C1702      C1706   1.518       .  S
C1703      C1708   1.408   1_565  A
C1703      C2288   1.388       .  A
C1704      F1720   1.383       .  S
C1704      F1721   1.375       .  S
C1704      F1722   1.383       .  S
C1706      F1717   1.384       .  S
C1706      F1718   1.382       .  S
C1706      F1719   1.384       .  S
C1708      C1713   1.524       .  S
C1708      C1709   1.420       .  A
C1709      C2286   1.419   1_545  A
C1709      H1714   1.056       .  S
C1710      C2285   1.420       .  A
C1710      C1711   1.479       .  A
C1711      C1715   1.538       .  S
C1711      C1712   1.406       .  A
C1712      C2279   1.388       .  A
C1712      H1716   1.085       .  S
C1713      F1726   1.382       .  S
C1713      F1727   1.382       .  S
C1713      F1728   1.375       .  S
C1715      F1723   1.385       .  S
C1715      F1724   1.368       .  S
C1715      F1725   1.382       .  S
C1729      C1760   1.735   1_546  S
C1729      C2245   1.712       .  S
C1729      C1998   1.632   1_546  S
O1730     Cu1738   2.010       .  S
O1730      C1740   1.275       .  A
O1731     Cu1738   2.018       .  S
O1731      C1741   1.278       .  A
O1732     Cu1738   2.016       .  S
O1732      C1742   1.279       .  A
O1733     Cu1738   2.015       .  S
O1733      C1743   1.281   1_565  A
O1734     Cu1739   2.002       .  S
O1735     Cu1739   1.999       .  S
O1736     Cu1739   2.024       .  S
O1737     Cu1739   2.016       .  S
C1740      C1934   1.493       .  S
C1741      C1966   1.508       .  S
C1742      C1989   1.474       .  S
C1743      C1893   1.478       .  S
C1744      C1760   1.722   1_545  S
C1745      C1829   1.641       .  S
C1745      C2158   1.645       .  S
O1746     Cu1754   2.031       .  S
O1746      C1756   1.283       .  A
O1747     Cu1754   2.025       .  S
O1747      C1757   1.279       .  A
O1748     Cu1754   1.991       .  S
O1748      C1758   1.273       .  A
O1749     Cu1754   1.995       .  S
O1749      C1759   1.275       .  A
O1750     Cu1755   2.024       .  S
O1750      C1759   1.280       .  A
O1751     Cu1755   2.021       .  S
O1751      C1758   1.279       .  A
O1752     Cu1755   1.995       .  S
O1752      C1757   1.277       .  A
O1753     Cu1755   2.000       .  S
O1753      C1756   1.274       .  A
Cu1754    Cu1755   2.367       .  S
C1756      C1797   1.496       .  S
C1757      C1838   1.499       .  S
C1758      C1861   1.466       .  S
C1759      C1765   1.481       .  S
C1760      C2062   1.645   1_554  S
C1760      C1806   1.680       .  S
C1761      C1762   1.401       .  A
C1761      C1766   1.404       .  A
C1761      H1771   1.077       .  S
C1762      C1767   1.487       .  S
C1762      C1763   1.413       .  A
C1763      C1768   1.520       .  S
C1763      C1764   1.409       .  A
C1764      C1765   1.408       .  A
C1764      H1769   1.083       .  S
C1765      C1766   1.417       .  A
C1766      C1770   1.520       .  S
C1767      C1772   1.396       .  A
C1767      C1776   1.374       .  A
C1768      F1784   1.382       .  S
C1768      F1785   1.382       .  S
C1768      F1786   1.384       .  S
C1770      F1781   1.385       .  S
C1770      F1782   1.382       .  S
C1770      F1783   1.384       .  S
C1772      C1777   1.526       .  S
C1772      C1773   1.421       .  A
C1773      C1774   1.439       .  A
C1773      H1778   1.050       .  S
C1774      C2048   1.641       .  S
C1774      C1775   1.482       .  A
C1775      C1779   1.536       .  S
C1775      C1776   1.410       .  A
C1776      H1780   1.087       .  S
C1777      F1790   1.366       .  S
C1777      F1791   1.381       .  S
C1777      F1792   1.380       .  S
C1779      F1787   1.384       .  S
C1779      F2076   1.367       .  S
C1779      F1789   1.380       .  S
F1788      C2067   1.368       .  S
C1793      C1794   1.401       .  A
C1793      C1798   1.412       .  A
C1793      H1803   1.083       .  S
C1794      C1799   1.495       .  S
C1794      C1795   1.419       .  A
C1795      C1800   1.519       .  S
C1795      C1796   1.408       .  A
C1796      C1797   1.405       .  A
C1796      H1801   1.083       .  S
C1797      C1798   1.427       .  A
C1798      C1802   1.522       .  S
C1799      C1804   1.403       .  A
C1799      C1808   1.388       .  A
C1800      F1816   1.381       .  S
C1800      F1817   1.380       .  S
C1800      F1818   1.386       .  S
C1802      F1813   1.383       .  S
C1802      F1814   1.385       .  S
C1802      F1815   1.384       .  S
C1804      C1809   1.527       .  S
C1804      C1805   1.420       .  A
C1805      C1806   1.440       .  A
C1805      H1810   1.070       .  S
C1806      C1807   1.464       .  A
C1807      C1811   1.537       .  S
C1807      C1808   1.417       .  A
C1808      H1812   1.085       .  S
C1809      F1822   1.384       .  S
C1809      F1823   1.382       .  S
C1809      F1824   1.381       .  S
C1811      F1819   1.381       .  S
C1811      F1820   1.365   1_565  S
C1811      F1821   1.373       .  S
C1825      C1826   1.381       .  A
C1825      C1830   1.413       .  A
C1825      H1835   1.084       .  S
C1826      C1831   1.488       .  S
C1826      C1827   1.396       .  A
C1827      C1832   1.517       .  S
C1827      C1828   1.415       .  A
C1828      C1829   1.418       .  A
C1828      H1833   1.063       .  S
C1829      C1830   1.484       .  A
C1830      C1834   1.541       .  S
C1831      C1836   1.413       .  A
C1831      C1840   1.403       .  A
C1832      F1848   1.381       .  S
C1832      F1849   1.382       .  S
C1832      F1850   1.381       .  S
C1834      F1845   1.388       .  S
C1834      F1846   1.366       .  S
C1834      F2135   1.351       .  S
C1836      C1841   1.519       .  S
C1836      C1837   1.402       .  A
C1837      C1838   1.412       .  A
C1837      H1842   1.084       .  S
C1838      C1839   1.426       .  A
C1839      C1843   1.521       .  S
C1839      C1840   1.409       .  A
C1840      H1844   1.080       .  S
C1841      F1854   1.384       .  S
C1841      F1855   1.383       .  S
C1841      F1856   1.383       .  S
C1843      F1851   1.385       .  S
C1843      F1852   1.383       .  S
C1843      F1853   1.383       .  S
F1847      C2122   1.352   1_554  S
C1857      C1858   1.404       .  A
C1857      C1862   1.402       .  A
C1857      H1867   1.085       .  S
C1858      C1863   1.482       .  S
C1858      C1859   1.416       .  A
C1859      C1864   1.516       .  S
C1859      C1860   1.404       .  A
C1860      C1861   1.403       .  A
C1860      H1865   1.085       .  S
C1861      C1862   1.416       .  A
C1862      C1866   1.519       .  S
C1863      C1868   1.401       .  A
C1863      C1872   1.387       .  A
C1864      F1880   1.378       .  S
C1864      F1881   1.383       .  S
C1864      F1882   1.383       .  S
C1866      F1877   1.383       .  S
C1866      F1878   1.384       .  S
C1866      F1879   1.380       .  S
C1868      C1873   1.520       .  S
C1868      C1869   1.413       .  A
C1869      C1870   1.402       .  A
C1869      H1874   1.038       .  S
C1870      C2033   1.639       .  S
C1870      C1871   1.467       .  A
C1871      C1875   1.530       .  S
C1871      C1872   1.408       .  A
C1872      H1876   1.083       .  S
C1873      F1887   1.383       .  S
C1873      F1888   1.381       .  S
C1875      F1883   1.387       .  S
C1875      F1884   1.348   1_554  S
C1875      F1885   1.377       .  S
C1889      C1894   1.411       .  A
C1889      H1899   1.083       .  S
C1890      C1895   1.490       .  S
C1890      C1891   1.419   1_545  A
C1891      C1896   1.512       .  S
C1891      C1892   1.400       .  A
C1892      C1893   1.397   1_565  A
C1892      H1897   1.083       .  S
C1894      C1898   1.519       .  S
C1895      C1900   1.388   1_545  A
C1896      F1912   1.381       .  S
C1896      F1913   1.381       .  S
C1896      F1914   1.385       .  S
C1898      F1909   1.385       .  S
C1898      F1910   1.382       .  S
C1898      F1911   1.383       .  S
C1900      C1905   1.520   1_655  S
C1900      C1901   1.411   1_655  A
C1901      C1902   1.434   1_565  A
C1903      C1907   1.535       .  S
C1903      C1904   1.426       .  A
C1904      H1908   1.088       .  S
C1905      F1919   1.380       .  S
C1905      F1920   1.382   1_455  S
C1907      F1915   1.385       .  S
C1907      F2204   1.349       .  S
C1907      F1917   1.384       .  S
F1916      C2195   1.347   1_554  S
C1921      C1926   1.420       .  A
C1921      H1931   1.086       .  S
C1922      C1927   1.495       .  S
C1922      C1923   1.394   1_655  A
C1923      C1928   1.518       .  S
C1923      C1924   1.417       .  A
C1925      C1926   1.485   1_455  A
C1926      C1930   1.525   1_554  S
C1927      C1932   1.419       .  A
C1928      F1944   1.381       .  S
C1928      F1945   1.383   1_455  S
C1930      F1941   1.371       .  S
C1930      F1942   1.386   1_556  S
C1930      F2231   1.358       .  S
C1932      C1937   1.515       .  S
C1932      C1933   1.405       .  A
C1933      H1938   1.083       .  S
C1934      C1935   1.424       .  A
C1935      C1939   1.520       .  S
C1935      C1936   1.411       .  A
C1936      H1940   1.083       .  S
C1937      F1950   1.385       .  S
C1937      F1951   1.381       .  S
C1937      F1952   1.377       .  S
C1939      F1947   1.382       .  S
C1939      F1948   1.383       .  S
C1939      F1949   1.385       .  S
F1943      C2218   1.357       .  S
C1953      C1958   1.414       .  A
C1953      H1963   1.079       .  S
C1954      C1959   1.508       .  S
C1954      C1955   1.417       .  A
C1955      C1960   1.526       .  S
C1955      C1956   1.422       .  A
C1956      C1957   1.459   1_565  A
C1956      H1961   1.063       .  S
C1957      C2017   1.713       .  S
C1958      C1962   1.546       .  S
C1959      C1964   1.422       .  A
C1960      F1976   1.381   1_565  S
C1960      F1977   1.380       .  S
C1960      F1978   1.384   1_565  S
C1962      F1973   1.385       .  S
C1962      F1974   1.374       .  S
C1962      F1975   1.366       .  S
C1964      C1969   1.520       .  S
C1964      C1965   1.412       .  A
C1965      C1966   1.412       .  A
C1965      H1970   1.084       .  S
C1967      C1971   1.521       .  S
C1967      C1968   1.411       .  A
C1968      H1972   1.077       .  S
C1969      F1982   1.382       .  S
C1969      F1983   1.383       .  S
C1969      F1984   1.381       .  S
C1971      F1979   1.384       .  S
C1971      F1980   1.383       .  S
C1971      F1981   1.385       .  S
C1985      C1990   1.408       .  A
C1985      H1995   1.083       .  S
C1986      C1991   1.491       .  S
C1986      C1987   1.421       .  A
C1987      C1992   1.517       .  S
C1987      C1988   1.403       .  A
C1988      H1993   1.085       .  S
C1989      C1990   1.413       .  A
C1990      C1994   1.519       .  S
C1991      C1996   1.406       .  A
C1992      F2008   1.384       .  S
C1992      F2009   1.374       .  S
C1992      F2010   1.383       .  S
C1994      F2005   1.384       .  S
C1994      F2006   1.382       .  S
C1994      F2007   1.384       .  S
C1996      C2001   1.521       .  S
C1996      C1997   1.417       .  A
C1997      H2002   1.054       .  S
C1998      C1999   1.481       .  A
C1999      C2003   1.538       .  S
C1999      C2000   1.408       .  A
C2000      H2004   1.085       .  S
C2001      F2014   1.384       .  S
C2001      F2015   1.381       .  S
C2001      F2016   1.377       .  S
C2003      F2011   1.384       .  S
C2003      F2012   1.367   1_554  S
C2003      F2013   1.381       .  S
C2017      C2048   1.737   1_545  S
C2017      C2286   1.631   1_545  S
O2018     Cu2026   2.011       .  S
O2018      C2028   1.276       .  A
O2019     Cu2026   2.021       .  S
O2019      C2029   1.280       .  A
O2020     Cu2026   2.009       .  S
O2020      C2030   1.277       .  A
O2021     Cu2026   2.016       .  S
O2021      C2031   1.280       .  A
O2022     Cu2027   1.997       .  S
O2023     Cu2027   1.988       .  S
O2024     Cu2027   2.026       .  S
O2025     Cu2027   2.018       .  S
C2028      C2222   1.490       .  S
C2029      C2254   1.503       .  S
C2030      C2277   1.475       .  S
C2031      C2181   1.489       .  S
C2032      C2048   1.722   1_545  S
C2033      C2117   1.648   1_554  S
O2034     Cu2042   2.043       .  S
O2034      C2044   1.284       .  A
O2035     Cu2042   2.033       .  S
O2035      C2045   1.280       .  A
O2036     Cu2042   1.987       .  S
O2036      C2046   1.273       .  A
O2037     Cu2042   1.995       .  S
O2037      C2047   1.275       .  A
O2038     Cu2043   2.022       .  S
O2038      C2047   1.279       .  A
O2039     Cu2043   2.014       .  S
O2039      C2046   1.279       .  A
O2040     Cu2043   1.988       .  S
O2040      C2045   1.276       .  A
O2041     Cu2043   1.995       .  S
O2041      C2044   1.273       .  A
Cu2042    Cu2043   2.367       .  S
C2044      C2085   1.501       .  S
C2045      C2126   1.500       .  S
C2046      C2149   1.462       .  S
C2047      C2053   1.479       .  S
C2048      C2094   1.681       .  S
C2049      C2050   1.404       .  A
C2049      C2054   1.406       .  A
C2049      H2059   1.075       .  S
C2050      C2055   1.494       .  S
C2050      C2051   1.416       .  A
C2051      C2056   1.520       .  S
C2051      C2052   1.409       .  A
C2052      C2053   1.406       .  A
C2052      H2057   1.083       .  S
C2053      C2054   1.415       .  A
C2054      C2058   1.520       .  S
C2055      C2060   1.397       .  A
C2055      C2064   1.375       .  A
C2056      F2072   1.383       .  S
C2056      F2073   1.382       .  S
C2056      F2074   1.384       .  S
C2058      F2069   1.384       .  S
C2058      F2070   1.383       .  S
C2058      F2071   1.384       .  S
C2060      C2065   1.523       .  S
C2060      C2061   1.422       .  A
C2061      C2062   1.437       .  A
C2061      H2066   1.048       .  S
C2062      C2063   1.483       .  A
C2063      C2067   1.538   1_556  S
C2063      C2064   1.413       .  A
C2064      H2068   1.086       .  S
C2065      F2078   1.367       .  S
C2065      F2079   1.381       .  S
C2065      F2080   1.382       .  S
C2067      F2075   1.383   1_554  S
C2067      F2077   1.380       .  S
C2081      C2082   1.402       .  A
C2081      C2086   1.414       .  A
C2081      H2091   1.083       .  S
C2082      C2087   1.501       .  S
C2082      C2083   1.419       .  A
C2083      C2088   1.517       .  S
C2083      C2084   1.410       .  A
C2084      C2085   1.404       .  A
C2084      H2089   1.083       .  S
C2085      C2086   1.430       .  A
C2086      C2090   1.523       .  S
C2087      C2092   1.404       .  A
C2087      C2096   1.390       .  A
C2088      F2104   1.382       .  S
C2088      F2105   1.380       .  S
C2088      F2106   1.385       .  S
C2090      F2101   1.383       .  S
C2090      F2102   1.384       .  S
C2090      F2103   1.384       .  S
C2092      C2097   1.526       .  S
C2092      C2093   1.421       .  A
C2093      C2094   1.440       .  A
C2093      H2098   1.070       .  S
C2094      C2095   1.461       .  A
C2095      C2099   1.535       .  S
C2095      C2096   1.419       .  A
C2096      H2100   1.084       .  S
C2097      F2110   1.384       .  S
C2097      F2111   1.383       .  S
C2097      F2112   1.381       .  S
C2099      F2107   1.380       .  S
C2099      F2108   1.366   1_565  S
C2099      F2109   1.371       .  S
C2113      C2114   1.381       .  A
C2113      C2118   1.417       .  A
C2113      H2123   1.083       .  S
C2114      C2119   1.491       .  S
C2114      C2115   1.394       .  A
C2115      C2120   1.517       .  S
C2115      C2116   1.416       .  A
C2116      C2117   1.420       .  A
C2116      H2121   1.064       .  S
C2117      C2118   1.490       .  A
C2118      C2122   1.548       .  S
C2119      C2124   1.413       .  A
C2119      C2128   1.404       .  A
C2120      F2136   1.381       .  S
C2120      F2137   1.382       .  S
C2120      F2138   1.381       .  S
C2122      F2133   1.388       .  S
C2122      F2134   1.365   1_556  S
C2124      C2129   1.518       .  S
C2124      C2125   1.403       .  A
C2125      C2126   1.413       .  A
C2125      H2130   1.084       .  S
C2126      C2127   1.424       .  A
C2127      C2131   1.521       .  S
C2127      C2128   1.409       .  A
C2128      H2132   1.078       .  S
C2129      F2142   1.384       .  S
C2129      F2143   1.382       .  S
C2129      F2144   1.382       .  S
C2131      F2139   1.385       .  S
C2131      F2140   1.383       .  S
C2131      F2141   1.383       .  S
C2145      C2146   1.406       .  A
C2145      C2150   1.403       .  A
C2145      H2155   1.084       .  S
C2146      C2151   1.484       .  S
C2146      C2147   1.415       .  A
C2147      C2152   1.515       .  S
C2147      C2148   1.402       .  A
C2148      C2149   1.401       .  A
C2148      H2153   1.085       .  S
C2149      C2150   1.415       .  A
C2150      C2154   1.520       .  S
C2151      C2156   1.402       .  A
C2151      C2160   1.384       .  A
C2152      F2168   1.379       .  S
C2152      F2169   1.383       .  S
C2152      F2170   1.384       .  S
C2154      F2165   1.383       .  S
C2154      F2166   1.384       .  S
C2154      F2167   1.381       .  S
C2156      C2161   1.521       .  S
C2156      C2157   1.417       .  A
C2157      C2158   1.410       .  A
C2157      H2162   1.029       .  S
C2158      C2159   1.465       .  A
C2159      C2163   1.526       .  S
C2159      C2160   1.407       .  A
C2160      H2164   1.081       .  S
C2161      F2175   1.383       .  S
C2161      F2176   1.380       .  S
C2163      F2171   1.386       .  S
C2163      F2172   1.346       .  S
C2163      F2173   1.378       .  S
C2177      C2182   1.411       .  A
C2177      H2187   1.083       .  S
C2178      C2183   1.499   1_565  S
C2178      C2179   1.422       .  A
C2179      C2184   1.513       .  S
C2179      C2180   1.405       .  A
C2180      C2181   1.400       .  A
C2180      H2185   1.083       .  S
C2182      C2186   1.518       .  S
C2183      C2188   1.389   1_645  A
C2184      F2200   1.380       .  S
C2184      F2201   1.380       .  S
C2184      F2202   1.385       .  S
C2186      F2197   1.384       .  S
C2186      F2198   1.382       .  S
C2186      F2199   1.383       .  S
C2188      C2193   1.520       .  S
C2188      C2189   1.417       .  A
C2189      C2190   1.440   1_565  A
C2191      C2195   1.536       .  S
C2191      C2192   1.426       .  A
C2192      H2196   1.088       .  S
C2193      F2207   1.382       .  S
C2193      F2208   1.381   1_455  S
C2195      F2203   1.384       .  S
C2195      F2205   1.382   1_556  S
C2209      C2214   1.421       .  A
C2209      H2219   1.087       .  S
C2210      C2215   1.495       .  S
C2210      C2211   1.393       .  A
C2211      C2216   1.520   1_655  S
C2211      C2212   1.418   1_655  A
C2213      C2214   1.485   1_455  A
C2214      C2218   1.525       .  S
C2215      C2220   1.416       .  A
C2216      F2232   1.382       .  S
C2216      F2233   1.383   1_455  S
C2218      F2229   1.368       .  S
C2218      F2230   1.386       .  S
C2220      C2225   1.515       .  S
C2220      C2221   1.405       .  A
C2221      H2226   1.083       .  S
C2222      C2223   1.423       .  A
C2223      C2227   1.518       .  S
C2223      C2224   1.412       .  A
C2224      H2228   1.083       .  S
C2225      F2238   1.385       .  S
C2225      F2239   1.381       .  S
C2225      F2240   1.378       .  S
C2227      F2235   1.383       .  S
C2227      F2236   1.384       .  S
C2227      F2237   1.384       .  S
C2241      C2246   1.414       .  A
C2241      H2251   1.080       .  S
C2242      C2247   1.509       .  S
C2242      C2243   1.414       .  A
C2243      C2248   1.526       .  S
C2243      C2244   1.421       .  A
C2244      C2245   1.460   1_565  A
C2244      H2249   1.061       .  S
C2246      C2250   1.544       .  S
C2247      C2252   1.424       .  A
C2248      F2264   1.382   1_565  S
C2248      F2265   1.380       .  S
C2248      F2266   1.385   1_565  S
C2250      F2261   1.388       .  S
C2250      F2262   1.372       .  S
C2250      F2263   1.365       .  S
C2252      C2257   1.518       .  S
C2252      C2253   1.409       .  A
C2253      C2254   1.407       .  A
C2253      H2258   1.084       .  S
C2255      C2259   1.520       .  S
C2255      C2256   1.411       .  A
C2256      H2260   1.080       .  S
C2257      F2270   1.383       .  S
C2257      F2271   1.384       .  S
C2257      F2272   1.379       .  S
C2259      F2267   1.382       .  S
C2259      F2268   1.382       .  S
C2259      F2269   1.385       .  S
C2273      C2278   1.407       .  A
C2273      H2283   1.083       .  S
C2274      C2279   1.488       .  S
C2274      C2275   1.421       .  A
C2275      C2280   1.518       .  S
C2275      C2276   1.401       .  A
C2276      H2281   1.084       .  S
C2277      C2278   1.414       .  A
C2278      C2282   1.519       .  S
C2279      C2284   1.405       .  A
C2280      F2296   1.384       .  S
C2280      F2297   1.375       .  S
C2280      F2298   1.384       .  S
C2282      F2293   1.384       .  S
C2282      F2294   1.383       .  S
C2282      F2295   1.384       .  S
C2284      C2289   1.525       .  S
C2284      C2285   1.418       .  A
C2285      H2290   1.056       .  S
C2286      C2287   1.480       .  A
C2287      C2291   1.538       .  S
C2287      C2288   1.406       .  A
C2288      H2292   1.085       .  S
C2289      F2302   1.383       .  S
C2289      F2303   1.382       .  S
C2289      F2304   1.377       .  S
C2291      F2299   1.382       .  S
C2291      F2300   1.366       .  S
C2291      F2301   1.382       .  S
