geometry optimzed in LAMMPS
_audit_creation_date              2020-11-30 
_audit_creation_method            'lammps2cif' 
_symmetry_space_group_name_H-M    'P1' 
_symmetry_Int_Tables_number       1 
_symmetry_cell_setting            triclinic 
loop_ 
_symmetry_equiv_pos_as_xyz 
  x,y,z 
_cell_length_a                    59.76900389 
_cell_length_b                    59.9183642744706 
_cell_length_c                    46.92121334774485 
_cell_angle_alpha                 90.07045628607196 
_cell_angle_beta                  89.9116459910556 
_cell_angle_gamma                 120.17123323285183 
loop_ 
_atom_site_label 
_atom_site_type_symbol 
_atom_site_fract_x 
_atom_site_fract_y 
_atom_site_fract_z 
_atom_site_charge 
C1          C  0.44797096  0.23504952  0.12441621     0.03600
C2          C  0.44857450  0.22259203  0.14947514    -0.12500
C3          C  0.44790437  0.19890544  0.14800809     0.01100
C4          C  0.44676972  0.18774743  0.12140954    -0.11100
C5          C  0.44612380  0.20004537  0.09630047     0.03600
C6          C  0.44649346  0.22355534  0.09787560    -0.10500
H7          H  0.44981854  0.23141769  0.17003219     0.09200
H8          H  0.44702612  0.16980291  0.12022985     0.06700
H9          H  0.44607104  0.23311382  0.07845031     0.06600
C10         C  0.27029390  0.85910181  0.37796929     0.03600
C11         C  0.25807146  0.84669409  0.35248495    -0.12500
C12         C  0.23446901  0.82331275  0.35320657     0.01100
C13         C  0.22319863  0.81236293  0.37951387    -0.11100
C14         C  0.23531757  0.82463208  0.40502066     0.03600
C15         C  0.25881646  0.84803256  0.40417702    -0.10500
H16         H  0.26702561  0.85507807  0.33219317     0.09200
H17         H  0.20543906  0.79383001  0.38014095     0.06700
H18         H  0.26843598  0.85733656  0.42389587     0.06600
C19         C  0.86839725  0.19835639  0.12750037     0.03600
C20         C  0.88073229  0.21102469  0.15288981    -0.12500
C21         C  0.90412505  0.23467101  0.15190541     0.01100
C22         C  0.91541615  0.24529175  0.12553550    -0.11100
C23         C  0.90348357  0.23265685  0.10009382     0.03600
C24         C  0.88001778  0.20916913  0.10117258    -0.10500
H25         H  0.87171274  0.20302768  0.17326665     0.09200
H26         H  0.93307326  0.26391408  0.12478185     0.06700
H27         H  0.87049207  0.19959288  0.08152894     0.06600
C28         C  0.68928911  0.82011573  0.37126472     0.03600
C29         C  0.68786852  0.83120988  0.39715812    -0.12500
C30         C  0.68762011  0.85453508  0.39716044     0.01100
C31         C  0.68932356  0.86693132  0.37130532    -0.11100
C32         C  0.69122731  0.85629522  0.34541782     0.03600
C33         C  0.69098864  0.83277087  0.34548171    -0.10500
H34         H  0.68648010  0.82152242  0.41712560     0.09200
H35         H  0.68874023  0.88473029  0.37129592     0.06700
H36         H  0.69211461  0.82429530  0.32549264     0.06600
C37         C  0.90868951  0.67121518  0.12186059     0.03600
C38         C  0.89408909  0.66821803  0.09724658    -0.12500
C39         C  0.86928381  0.66508792  0.09943270     0.01100
C40         C  0.85934717  0.66567528  0.12632642    -0.11100
C41         C  0.87365503  0.66847845  0.15108601     0.03600
C42         C  0.89824960  0.67105889  0.14877746    -0.10500
H43         H  0.90163334  0.66736523  0.07650101     0.09200
H44         H  0.83995055  0.66273055  0.12805923     0.06700
H45         H  0.90894957  0.67224814  0.16789922     0.06600
C46         C  0.24216377  0.40120295  0.37193530     0.03600
C47         C  0.25560592  0.40236043  0.39699424    -0.12500
C48         C  0.27968883  0.40362787  0.39539102     0.01100
C49         C  0.29006208  0.40335649  0.36873533    -0.11100
C50         C  0.27678722  0.40205944  0.34364827     0.03600
C51         C  0.25304399  0.40142230  0.34530365    -0.10500
H52         H  0.24752562  0.40260310  0.41760751     0.09200
H53         H  0.30875629  0.40455255  0.36748177     0.06700
H54         H  0.24291469  0.40081234  0.32591655     0.06600
O55         O  0.97496767  0.34957595  0.34051320    -0.78000
C56         C  0.98519651  0.35139279  0.43353762     0.83000
O57         O  0.96336862  0.41792294  0.37691773    -0.79100
O58         O  0.03908732  0.43670809  0.43545826    -0.80600
O59         O  0.06519468  0.40552526  0.35480676    -0.80400
O60         O  0.01079844  0.37370288  0.31552741    -0.79000
Zn61       Zn  0.97773925  0.36967027  0.37580499     1.55700
O62         O  0.06318113  0.40283585  0.40219213    -0.80400
Cd63       Cd  0.03148660  0.40490375  0.34274419     1.59700
Cd64       Cd  0.00280063  0.43107335  0.37705203     1.59600
O65         O  0.04156302  0.43852355  0.32036733    -0.80400
O66         O  0.01018007  0.40199075  0.37699801    -1.90900
Cd67       Cd  0.02953055  0.40341802  0.41237625     1.59900
O68         O  0.01950126  0.45459783  0.34218113    -0.80400
O69         O  0.00676148  0.37189321  0.43823798    -0.79000
C70         C  0.94419030  0.39493539  0.37614000     0.83500
C71         C  0.98876552  0.35329205  0.31842119     0.83200
O72         O  0.97303550  0.34798114  0.41024771    -0.78000
C73         C  0.07474545  0.40443797  0.37873504     0.84000
O74         O  0.94760544  0.37564546  0.37565600    -0.78100
C75         C  0.03487075  0.45557761  0.32274593     0.84100
C76         C  0.03293342  0.45415247  0.43281912     0.84400
O77         O  0.01908018  0.45425504  0.41227543    -0.80500
O78         O  0.17051755  0.70737832  0.09239729    -0.78000
C79         C  0.15468354  0.70518506  0.18501053     0.83000
O80         O  0.17546221  0.63587380  0.13247118    -0.79100
O81         O  0.09833856  0.62000283  0.18453655    -0.80600
O82         O  0.07913856  0.65473479  0.10209233    -0.80400
O83         O  0.13489571  0.68407989  0.06665531    -0.79000
Zn84       Zn  0.16486179  0.68666767  0.12838868     1.55700
O85         O  0.07875747  0.65623867  0.14954533    -0.80400
Cd86       Cd  0.11212539  0.65325515  0.09262088     1.59700
Cd87       Cd  0.13671200  0.62456163  0.12804029     1.59600
O88         O  0.10182601  0.62010702  0.06947269    -0.80400
O89         O  0.13156284  0.65500599  0.12779381    -1.90900
Cd90       Cd  0.11082230  0.65392161  0.16179880     1.59900
O91         O  0.12191050  0.60226942  0.09167265    -0.80400
O92         O  0.13268111  0.68490203  0.18846355    -0.79000
C93         C  0.19535698  0.65835199  0.13410806     0.83500
C94         C  0.15732314  0.70373648  0.06976491     0.83200
O95         O  0.16804317  0.70841052  0.16263162    -0.78000
C96         C  0.06884047  0.65594826  0.12541289     0.84000
O97         O  0.19371511  0.67868641  0.13213171    -0.78100
C98         C  0.10802698  0.60268405  0.07131934     0.84100
C99         C  0.10247836  0.60122217  0.18145334     0.84400
O100        O  0.11682691  0.60080396  0.16164062    -0.80500
O101        O  0.48762723  0.12505422  0.33548686    -0.78000
C102        C  0.47940026  0.11691013  0.42913756     0.83000
O103        O  0.56638992  0.13341444  0.37336268    -0.79100
O104        O  0.50677331  0.05983931  0.43350608    -0.80600
O105        O  0.44960193  0.03646307  0.35210981    -0.80400
O106        O  0.47662954  0.08917099  0.31106837    -0.79000
Zn107      Zn  0.50458587  0.12216370  0.37122168     1.55700
O108        O  0.44950776  0.03867899  0.39959035    -0.80400
Cd109      Cd  0.48446958  0.06780376  0.33981731     1.59700
Cd110      Cd  0.53891531  0.09444880  0.37443783     1.59600
O111        O  0.50620583  0.05451433  0.31911644    -0.80400
O112        O  0.50318148  0.08917041  0.37372820    -1.90900
Cd113      Cd  0.48475021  0.07091802  0.40941172     1.59900
O114        O  0.54453343  0.07516870  0.34092927    -0.80400
O115        O  0.47745813  0.09511227  0.43430289    -0.79000
C116        C  0.56379641  0.15319772  0.37124434     0.83500
C117        C  0.47860430  0.11129389  0.31314203     0.83200
O118        O  0.48840573  0.12855957  0.40559246    -0.78000
C119        C  0.43861451  0.02794359  0.37613689     0.84000
O120        O  0.54151477  0.15106919  0.37007150    -0.78100
C121        C  0.52949818  0.05953635  0.32200903     0.84100
C122        C  0.53040350  0.06564663  0.43161867     0.84400
O123        O  0.54475376  0.07910963  0.41106855    -0.80500
O124        O  0.65102179  0.93072761  0.08651377    -0.78000
C125        C  0.66194203  0.94312334  0.17929276     0.83000
O126        O  0.57157592  0.92025463  0.12161533    -0.79100
O127        O  0.62878820  0.99469041  0.18289111    -0.80600
O128        O  0.68744722  0.02035548  0.10041950    -0.80400
O129        O  0.66201552  0.96601220  0.06091122    -0.79000
Zn130      Zn  0.63422595  0.93399229  0.12223730     1.55700
O131        O  0.68649952  0.02035231  0.14798014    -0.80400
Cd132      Cd  0.65296138  0.98755881  0.08869359     1.59700
Cd133      Cd  0.59807943  0.95953339  0.12384689     1.59600
O134        O  0.62976714  0.99914099  0.06767491    -0.80400
O135        O  0.63456845  0.96658649  0.12321914    -1.90900
Cd136      Cd  0.65272751  0.98642640  0.15835089     1.59900
O137        O  0.59184769  0.97804405  0.09036407    -0.80400
O138        O  0.66311993  0.96471803  0.18346272    -0.79000
C139        C  0.57500250  0.90089527  0.12125673     0.83500
C140        C  0.66055542  0.94414565  0.06404968     0.83200
O141        O  0.65216432  0.93005365  0.15665774    -0.78000
C142        C  0.69767077  0.03039015  0.12438738     0.84000
O143        O  0.59763980  0.90388511  0.12193549    -0.78100
C144        C  0.60630095  0.99356670  0.07105946     0.84100
C145        C  0.60479539  0.98757615  0.18132129     0.84400
O146        O  0.59075916  0.97397440  0.16062011    -0.80500
C147        C  0.73222777  0.38072177  0.38519032     0.03600
C148        C  0.75766342  0.38526957  0.38527530    -0.12500
C149        C  0.76234650  0.36458132  0.38467484     0.01100
C150        C  0.74149894  0.33920249  0.38338446    -0.11100
C151        C  0.71600323  0.33442337  0.38250442     0.03600
C152        C  0.71144782  0.35524080  0.38379104    -0.10500
H153        H  0.77381624  0.40490314  0.38589436     0.09200
H154        H  0.74515507  0.32323372  0.38242060     0.06700
H155        H  0.69177173  0.35163485  0.38320733     0.06600
C156        C  0.40689149  0.67314774  0.13310371     0.03600
C157        C  0.38165413  0.66859438  0.13709509    -0.12500
C158        C  0.37705398  0.68926623  0.14008622     0.01100
C159        C  0.39799835  0.71467407  0.13893536    -0.11100
C160        C  0.42332526  0.71946783  0.13529063     0.03600
C161        C  0.42770100  0.69863955  0.13247550    -0.10500
H162        H  0.36553218  0.64893445  0.13732358     0.09200
H163        H  0.39458522  0.73076056  0.14074566     0.06700
H164        H  0.44722158  0.70229059  0.12925241     0.06600
O165        O  0.39346259  0.44600636  0.08308142    -0.78000
C166        C  0.39355767  0.43717716  0.17620886     0.83000
O167        O  0.46085308  0.52664685  0.12185234    -0.79100
O168        O  0.47985125  0.46913984  0.17956968    -0.80600
O169        O  0.44819708  0.41262399  0.09909109    -0.80400
O170        O  0.41898911  0.43591218  0.05860835    -0.79000
Zn171      Zn  0.41269035  0.46378050  0.11881787     1.55700
O172        O  0.44506329  0.41217768  0.14646960    -0.80400
Cd173      Cd  0.44921710  0.44635729  0.08707269     1.59700
Cd174      Cd  0.47458251  0.50094284  0.12222740     1.59600
O175        O  0.48388435  0.47005505  0.06644885    -0.80400
O176        O  0.44538681  0.46441052  0.12101712    -1.90900
Cd177      Cd  0.44640966  0.44640437  0.15631149     1.59900
O178        O  0.49910195  0.50830631  0.08788331    -0.80400
O179        O  0.41444993  0.43708199  0.18136010    -0.79000
C180        C  0.43787155  0.52270628  0.11968913     0.83500
C181        C  0.39802503  0.43647238  0.06109225     0.83200
O182        O  0.39016391  0.44581937  0.15282803    -0.78000
C183        C  0.44585725  0.40173893  0.12311052     0.84000
O184        O  0.41837314  0.49995133  0.11830392    -0.78100
C185        C  0.50085294  0.49388889  0.06906180     0.84100
C186        C  0.49736308  0.49285735  0.17777240     0.84400
O187        O  0.49736471  0.50748200  0.15805260    -0.80500
O188        O  0.75465605  0.61071976  0.33863507    -0.78000
C189        C  0.74928331  0.62203485  0.43113044     0.83000
O190        O  0.68333383  0.53130459  0.37556585    -0.79100
O191        O  0.66468711  0.59119149  0.42863928    -0.80600
O192        O  0.69768535  0.64473936  0.34499088    -0.80400
O193        O  0.73051993  0.62055814  0.31091862    -0.79000
Zn194      Zn  0.73282626  0.59393745  0.37369837     1.55700
O195        O  0.69853121  0.64680108  0.39243983    -0.80400
Cd196      Cd  0.69840775  0.61110538  0.33607657     1.59700
Cd197      Cd  0.67053821  0.55780023  0.37284980     1.59600
O198        O  0.66515710  0.58691384  0.31296924    -0.80400
O199        O  0.70037107  0.59410277  0.37199477    -1.90900
Cd200      Cd  0.69825893  0.61361808  0.40553486     1.59900
O201        O  0.64739367  0.54998727  0.33705801    -0.80400
O202        O  0.72911544  0.62405157  0.43294014    -0.79000
C203        C  0.70621023  0.53475734  0.37655630     0.83500
C204        C  0.75094713  0.61936257  0.31537389     0.83200
O205        O  0.75315788  0.61171419  0.40929355    -0.78000
C206        C  0.69819158  0.65617121  0.36813803     0.84000
O207        O  0.72594635  0.55735190  0.37553947    -0.78100
C208        C  0.64719432  0.56349919  0.31620149     0.84100
C209        C  0.64672804  0.56767126  0.42669454     0.84400
O210        O  0.64680280  0.55272379  0.40738650    -0.80500
C211        C  0.58049596  0.52221542  0.28192925    -0.22000
C212        C  0.58469479  0.53330777  0.25481920     0.10000
C213        C  0.60940598  0.55394918  0.24765026     0.10400
C214        C  0.62942324  0.56306030  0.26790000    -0.16900
C215        C  0.62540329  0.55200714  0.29526817    -0.27300
C216        C  0.60039718  0.53115376  0.30224294     0.18700
C217        C  0.56265163  0.52303259  0.23456678     0.12700
C218        C  0.61468222  0.56618583  0.21856169    -0.11700
H219        H  0.64836323  0.57894325  0.26224157     0.13000
C220        C  0.59396808  0.51865887  0.33124219    -0.22500
H221        H  0.56134226  0.50649906  0.28725685     0.08600
C222        C  0.55356950  0.49903772  0.22083545     0.05000
C223        C  0.53180074  0.48945904  0.20303166    -0.19700
C224        C  0.51898719  0.50339196  0.19842821    -0.12000
C225        C  0.52795126  0.52734043  0.21251714     0.13700
C226        C  0.54979048  0.53689819  0.23023055    -0.22500
C227        C  0.56717404  0.48381077  0.22451623    -0.05500
H228        H  0.52506497  0.47121598  0.19212721     0.15200
C229        C  0.51448543  0.54285651  0.21044708    -0.15700
H230        H  0.55654113  0.55509377  0.24125494     0.09500
H231        H  0.60533477  0.50897127  0.33526143     0.07400
H232        H  0.57318116  0.50374998  0.33317790     0.08600
H233        H  0.59824628  0.53351605  0.34775963     0.07600
H234        H  0.60217583  0.57469401  0.21490771     0.02500
H235        H  0.61058846  0.55137019  0.20199272     0.03000
H236        H  0.63515623  0.58180233  0.21624273     0.06500
H237        H  0.55795806  0.46579191  0.21167601     0.05500
H238        H  0.56658662  0.47836974  0.24721406    -0.00300
H239        H  0.58764882  0.49564829  0.21758986     0.01200
H240        H  0.50947880  0.54630785  0.23218603     0.04800
H241        H  0.49621840  0.53307455  0.19818011     0.06800
H242        H  0.52762728  0.56176739  0.20031185     0.07600
C243        C  0.57982325  0.53158599  0.46072744    -0.22000
C244        C  0.58586167  0.53876493  0.48930103     0.10000
C245        C  0.61175384  0.55565559  0.49731066     0.10400
C246        C  0.63119276  0.56496728  0.47638559    -0.16900
C247        C  0.62531751  0.55744450  0.44772166    -0.27300
C248        C  0.59919464  0.54071832  0.43977279     0.18700
C249        C  0.56463700  0.52802241  0.01045309     0.12700
C250        C  0.61879106  0.56375740  0.02790651    -0.11700
H251        H  0.65113602  0.57786878  0.48250443     0.13000
C252        C  0.59140214  0.53316303  0.40919233    -0.22500
H253        H  0.55979468  0.51875163  0.45484940     0.08600
C254        C  0.54970446  0.53977279  0.01585042     0.05000
C255        C  0.52923796  0.52836146  0.03546937    -0.19700
C256        C  0.52325796  0.50534521  0.04954714    -0.12000
C257        C  0.53872013  0.49393425  0.04457509     0.13700
C258        C  0.55903975  0.50532391  0.02480584    -0.22500
C259        C  0.55529035  0.56421260  0.50074363    -0.05500
H260        H  0.51751906  0.53717641  0.03945107     0.15200
C261        C  0.53516463  0.47044088  0.06035392    -0.15700
H262        H  0.57079940  0.49656307  0.02072084     0.09500
H263        H  0.57005434  0.52141438  0.40675860     0.07400
H264        H  0.59967195  0.52142223  0.40114285     0.08600
H265        H  0.59836080  0.55079555  0.39597646     0.07600
H266        H  0.61315551  0.54650274  0.04137255     0.02500
H267        H  0.60850217  0.57373882  0.03552802     0.03000
H268        H  0.63990753  0.57713464  0.03051489     0.06500
H269        H  0.54180458  0.57089717  0.50748958     0.05500
H270        H  0.55322931  0.56083860  0.47738237    -0.00300
H271        H  0.57532841  0.57976542  0.50555097     0.01200
H272        H  0.52984425  0.45440198  0.04504119     0.04800
H273        H  0.52022633  0.46372622  0.07723577     0.06800
H274        H  0.55362398  0.47505921  0.07091062     0.07600
C275        C  0.44478768  0.58901505  0.10823712    -0.22000
C276        C  0.42384835  0.58646966  0.12427293     0.10000
C277        C  0.40702327  0.56277944  0.13764288     0.10400
C278        C  0.41201819  0.54232350  0.13539702    -0.16900
C279        C  0.43331319  0.54487360  0.11980755    -0.27300
C280        C  0.44951767  0.56840913  0.10533368     0.18700
C281        C  0.41982150  0.60886367  0.12660729     0.12700
C282        C  0.38384765  0.55914385  0.15429110    -0.11700
H283        H  0.39939486  0.52431460  0.14625884     0.13000
C284        C  0.47115929  0.57234656  0.08560957    -0.22500
H285        H  0.45730680  0.60713742  0.09750266     0.08600
C286        C  0.43113036  0.62703731  0.14882643     0.05000
C287        C  0.42680111  0.64797606  0.15019017    -0.19700
C288        C  0.41152210  0.65119780  0.12974502    -0.12000
C289        C  0.40068565  0.63322705  0.10706505     0.13700
C290        C  0.40477825  0.61213407  0.10600105    -0.22500
C291        C  0.44774658  0.62428293  0.17104521    -0.05500
H292        H  0.43515346  0.66178871  0.16746634     0.15200
C293        C  0.38544289  0.63604263  0.08316222    -0.15700
H294        H  0.39642985  0.59827477  0.08875856     0.09500
H295        H  0.48997141  0.58736437  0.09452719     0.07400
H296        H  0.46834856  0.57896347  0.06451150     0.08600
H297        H  0.47200789  0.55459651  0.08163757     0.07600
H298        H  0.37079545  0.56221866  0.14009340     0.02500
H299        H  0.39018081  0.57320022  0.17212105     0.03000
H300        H  0.37266492  0.53940931  0.16340415     0.06500
H301        H  0.45512439  0.64017478  0.18692428     0.05500
H302        H  0.46462069  0.62463458  0.16065426    -0.00300
H303        H  0.43634396  0.60573418  0.18257905     0.01200
H304        H  0.39459785  0.63631838  0.06245329     0.04800
H305        H  0.38462446  0.65407132  0.08440262     0.06800
H306        H  0.36535934  0.61938881  0.08337435     0.07600
C307        C  0.70991200  0.42820892  0.40500059    -0.22000
C308        C  0.71915623  0.44505887  0.38165728     0.10000
C309        C  0.73281017  0.44085286  0.35975088     0.10400
C310        C  0.73677582  0.41971845  0.36158629    -0.16900
C311        C  0.72751542  0.40275380  0.38489961    -0.27300
C312        C  0.71409315  0.40719645  0.40706397     0.18700
C313        C  0.71516141  0.46755867  0.38098807     0.12700
C314        C  0.74318512  0.45869743  0.33447414    -0.11700
H315        H  0.74707910  0.41631104  0.34466539     0.13000
C316        C  0.70470593  0.39082038  0.43357859    -0.22500
H317        H  0.69972661  0.43174112  0.42195819     0.08600
C318        C  0.69274152  0.46587670  0.36906856     0.05000
C319        C  0.69030617  0.48800824  0.36811855    -0.19700
C320        C  0.70987217  0.51193461  0.37869314    -0.12000
C321        C  0.73221180  0.51331734  0.39119759     0.13700
C322        C  0.73446512  0.49108584  0.39212528    -0.22500
C323        C  0.67150505  0.44073664  0.35720382    -0.05500
H324        H  0.67313547  0.48665033  0.35865106     0.15200
C325        C  0.75356598  0.53780283  0.40428956    -0.15700
H326        H  0.75152193  0.49204194  0.40143342     0.09500
H327        H  0.68331029  0.38142727  0.43494928     0.07400
H328        H  0.71334099  0.40325411  0.45262405     0.08600
H329        H  0.71005434  0.37561738  0.43430716     0.07600
H330        H  0.75716111  0.47856671  0.34176110     0.02500
H331        H  0.72703352  0.45887212  0.32303203     0.03000
H332        H  0.75330462  0.45258056  0.31921291     0.06500
H333        H  0.65528481  0.44270417  0.34858496     0.05500
H334        H  0.66372304  0.42590582  0.37427276    -0.00300
H335        H  0.67923529  0.43406084  0.33969394     0.01200
H336        H  0.76843733  0.53465468  0.41469671     0.04800
H337        H  0.74543976  0.54502848  0.42080477     0.06800
H338        H  0.76355822  0.55268954  0.38759382     0.07600
C339        C  0.48520162  0.78300847  0.14988884    -0.22000
C340        C  0.48607099  0.79752693  0.12608371     0.10000
C341        C  0.46631376  0.78642725  0.10542650     0.10400
C342        C  0.44593203  0.76098501  0.10920167    -0.16900
C343        C  0.44506241  0.74635630  0.13299229    -0.27300
C344        C  0.46488000  0.75758333  0.15372468     0.18700
C345        C  0.50804121  0.82428101  0.12331946     0.12700
C346        C  0.46691021  0.80134747  0.07934896    -0.11700
H347        H  0.43072730  0.75230685  0.09334731     0.13000
C348        C  0.46493096  0.74364525  0.18042682    -0.22500
H349        H  0.50041966  0.79169145  0.16573706     0.08600
C350        C  0.50711939  0.84537421  0.13533358     0.05000
C351        C  0.52903458  0.87016424  0.13370728    -0.19700
C352        C  0.55208158  0.87434213  0.12075547    -0.12000
C353        C  0.55266310  0.85307541  0.10810026     0.13700
C354        C  0.53058050  0.82835982  0.10955900    -0.22500
C355        C  0.48314651  0.84160834  0.15030523    -0.05500
H356        H  0.52835787  0.88626334  0.14334138     0.15200
C357        C  0.57614569  0.85612955  0.09253804    -0.15700
H358        H  0.53096441  0.81197766  0.10027437     0.09500
H359        H  0.46533751  0.75497245  0.19936971     0.07400
H360        H  0.48243036  0.74166795  0.18067794     0.08600
H361        H  0.44767175  0.72414638  0.18242739     0.07600
H362        H  0.48478168  0.80692120  0.06692169     0.02500
H363        H  0.46663915  0.81904672  0.08573125     0.03000
H364        H  0.45000383  0.78977019  0.06528820     0.06500
H365        H  0.48566872  0.86010955  0.15858205     0.05500
H366        H  0.47857949  0.82824359  0.16858140    -0.00300
H367        H  0.46655242  0.83332044  0.13531409     0.01200
H368        H  0.57231916  0.83781121  0.08231018     0.04800
H369        H  0.59240554  0.86187079  0.10764305     0.06800
H370        H  0.58189105  0.87089551  0.07552879     0.07600
C371        C  0.65612021  0.27379780  0.35603523    -0.22000
C372        C  0.65225268  0.25651053  0.37809938     0.10000
C373        C  0.66964530  0.26457353  0.40120704     0.10400
C374        C  0.69040489  0.29008665  0.40197196    -0.16900
C375        C  0.69414785  0.30760309  0.38006629    -0.27300
C376        C  0.67703581  0.29917491  0.35649041     0.18700
C377        C  0.62966997  0.23008263  0.37654411     0.12700
C378        C  0.66613697  0.24628243  0.42505019    -0.11700
H379        H  0.70364717  0.29651304  0.41987859     0.13000
C380        C  0.68060424  0.31599734  0.33103587    -0.22500
H381        H  0.64281977  0.26733110  0.33816838     0.08600
C382        C  0.60523640  0.22453887  0.38669671     0.05000
C383        C  0.58422840  0.19934833  0.38428566    -0.19700
C384        C  0.58689474  0.17952624  0.37151157    -0.12000
C385        C  0.61140270  0.18549055  0.36035175     0.13700
C386        C  0.63255749  0.21058888  0.36366586    -0.22500
C387        C  0.60139709  0.24521901  0.40016957    -0.05500
H388        H  0.56561571  0.19507628  0.39279753     0.15200
C389        C  0.61602069  0.16668326  0.34356235    -0.15700
H390        H  0.65135484  0.21522952  0.35535515     0.09500
H391        H  0.66379221  0.31902052  0.32926433     0.07400
H392        H  0.68176232  0.30626766  0.31139079     0.08600
H393        H  0.69850663  0.33508857  0.33198870     0.07600
H394        H  0.66701388  0.22947478  0.41642659     0.02500
H395        H  0.64707257  0.23936134  0.43545101     0.03000
H396        H  0.68142459  0.25569736  0.44152437     0.06500
H397        H  0.58105382  0.23759999  0.40710027     0.05500
H398        H  0.60633811  0.26097048  0.38459966    -0.00300
H399        H  0.61406577  0.25324243  0.41914204     0.01200
H400        H  0.62587384  0.17580510  0.32320563     0.04800
H401        H  0.59809382  0.14881849  0.33756081     0.06800
H402        H  0.62867679  0.16163846  0.35594299     0.07600
C403        C  0.56779322  0.02351204  0.04201836    -0.22000
C404        C  0.57298021  0.02429424  0.01282636     0.10000
C405        C  0.58976781  0.01580754  0.00293252     0.10400
C406        C  0.60072778  0.00634264  0.02252236    -0.16900
C407        C  0.59533903  0.00521303  0.05180728    -0.27300
C408        C  0.57905104  0.01450662  0.06174802     0.18700
C409        C  0.56137637  0.03496135  0.49306888     0.12700
C410        C  0.59571673  0.01629768  0.47164662    -0.11700
H411        H  0.61320663  0.99933545  0.01486405     0.13000
C412        C  0.57394812  0.01647537  0.09290600    -0.22500
H413        H  0.55532627  0.03059565  0.04953604     0.08600
C414        C  0.53523363  0.02053747  0.48460651     0.05000
C415        C  0.52548320  0.03129764  0.46509488    -0.19700
C416        C  0.54139830  0.05600850  0.45350740    -0.12000
C417        C  0.56752104  0.07065295  0.46262777     0.13700
C418        C  0.57704766  0.05994756  0.48243066    -0.22500
C419        C  0.51784892  0.99358888  0.99563249    -0.05500
H420        H  0.50550581  0.02004539  0.45824307     0.15200
C421        C  0.58541650  0.09775764  0.45219086    -0.15700
H422        H  0.59700411  0.07098547  0.48943140     0.09500
H423        H  0.55316702  0.00315706  0.09767246     0.07400
H424        H  0.57866099  0.03652220  0.09777077     0.08600
H425        H  0.58583295  0.01219443  0.10747713     0.07600
H426        H  0.60546940  0.03644363  0.46363371     0.02500
H427        H  0.57747837  0.00451798  0.45961033     0.03000
H428        H  0.60868240  0.00837498  0.46746277     0.06500
H429        H  0.49809809  0.98479116  0.98642168     0.05500
H430        H  0.51610843  0.99399444  0.01915422    -0.00300
H431        H  0.52607804  0.98117432  0.98995607     0.01200
H432        H  0.60438321  0.10683177  0.46329901     0.04800
H433        H  0.57658495  0.10994372  0.45614539     0.06800
H434        H  0.58933609  0.09758022  0.42910129     0.07600
C435        C  0.56391173  0.02552615  0.29232430    -0.22000
C436        C  0.56001943  0.02650054  0.26303259     0.10000
C437        C  0.54522129  0.03731063  0.25329135     0.10400
C438        C  0.53505312  0.04744429  0.27312800    -0.16900
C439        C  0.53944827  0.04710428  0.30248754    -0.27300
C440        C  0.55355863  0.03537959  0.31226523     0.18700
C441        C  0.57188672  0.01634682  0.24288541     0.12700
C442        C  0.54054492  0.03849166  0.22194246    -0.11700
H443        H  0.52409707  0.05621429  0.26563453     0.13000
C444        C  0.55730683  0.03193769  0.34341103    -0.22500
H445        H  0.57496112  0.01680755  0.29968495     0.08600
C446        C  0.59763338  0.03179315  0.23349519     0.05000
C447        C  0.60796705  0.02158744  0.21397724    -0.19700
C448        C  0.59319383  0.99619289  0.20368151    -0.12000
C449        C  0.56762274  0.98035434  0.21415899     0.13700
C450        C  0.55721204  0.99085662  0.23322410    -0.22500
C451        C  0.61403831  0.05917279  0.24379618    -0.05500
H452        H  0.62754144  0.03374619  0.20620447     0.15200
C453        C  0.55102916  0.95210487  0.20690535    -0.15700
H454        H  0.53758843  0.97892947  0.24100214     0.09500
H455        H  0.57822788  0.04311776  0.34870578     0.07400
H456        H  0.55005881  0.01119229  0.34777054     0.08600
H457        H  0.54670284  0.03799087  0.35789508     0.07600
H458        H  0.53008871  0.01866585  0.21296909     0.02500
H459        H  0.55931883  0.04985935  0.21069017     0.03000
H460        H  0.52874278  0.04773720  0.21791256     0.06500
H461        H  0.63369204  0.06868804  0.23420010     0.05500
H462        H  0.61616190  0.05935432  0.26730969    -0.00300
H463        H  0.60474358  0.07058451  0.23801351     0.01200
H464        H  0.54421401  0.94070214  0.22690317     0.04800
H465        H  0.56139581  0.94421338  0.19480124     0.06800
H466        H  0.53391612  0.94904020  0.19447705     0.07600
C467        C  0.26467133  0.68272516  0.15776395    -0.22000
C468        C  0.27148167  0.66823211  0.14011652     0.10000
C469        C  0.25269187  0.64903840  0.12224462     0.10400
C470        C  0.22772244  0.64573530  0.12129535    -0.16900
C471        C  0.22111731  0.66100766  0.13807674    -0.27300
C472        C  0.23958012  0.67904172  0.15743442     0.18700
C473        C  0.29860368  0.67394619  0.14030821     0.12700
C474        C  0.25902925  0.63210916  0.10422871    -0.11700
H475        H  0.21347802  0.63159523  0.10688359     0.13000
C476        C  0.23343216  0.69406094  0.17878468    -0.22500
H477        H  0.27905282  0.69696741  0.17200077     0.08600
C478        C  0.31672606  0.69107741  0.12032909     0.05000
C479        C  0.34220939  0.69587806  0.12110390    -0.19700
C480        C  0.35018166  0.68441502  0.14179739    -0.12000
C481        C  0.33219949  0.66813964  0.16267477     0.13700
C482        C  0.30650581  0.66281025  0.16134222    -0.22500
C483        C  0.30923166  0.70449834  0.09839717    -0.05500
H484        H  0.35596992  0.70846826  0.10523839     0.15200
C485        C  0.33950966  0.65683155  0.18717942    -0.15700
H486        H  0.29260493  0.65018535  0.17709083     0.09500
H487        H  0.24507215  0.71499972  0.17394935     0.07400
H488        H  0.23845947  0.69067234  0.20051575     0.08600
H489        H  0.21270834  0.68831330  0.17935851     0.07600
H490        H  0.26519685  0.62122412  0.11817042     0.02500
H491        H  0.27491532  0.64404426  0.08915109     0.03000
H492        H  0.24205693  0.61796138  0.09162476     0.06500
H493        H  0.32585070  0.71746494  0.08458722     0.05500
H494        H  0.30225721  0.71634374  0.10924783    -0.00300
H495        H  0.29361891  0.69009169  0.08453437     0.01200
H496        H  0.33432557  0.66251067  0.20759422     0.04800
H497        H  0.36048516  0.66364645  0.18806221     0.06800
H498        H  0.32871704  0.63544837  0.18555242     0.07600
C499        C  0.82624045  0.37003482  0.40594556    -0.22000
C500        C  0.84027558  0.37909006  0.38049748     0.10000
C501        C  0.82869084  0.38339390  0.35656326     0.10400
C502        C  0.80326460  0.37868606  0.35868688    -0.16900
C503        C  0.78916369  0.36956292  0.38410620    -0.27300
C504        C  0.80077725  0.36522791  0.40809695     0.18700
C505        C  0.86697945  0.38358867  0.37924284     0.12700
C506        C  0.84322273  0.39305990  0.32888996    -0.11700
H507        H  0.79421969  0.38192704  0.34037464     0.13000
C508        C  0.78707657  0.35594215  0.43630156    -0.22500
H509        H  0.83525099  0.36673644  0.42425704     0.08600
C510        C  0.88814567  0.40631497  0.39014230     0.05000
C511        C  0.91307703  0.40957761  0.38853913    -0.19700
C512        C  0.91735919  0.39054490  0.37639430    -0.12000
C513        C  0.89592716  0.36784900  0.36504692     0.13700
C514        C  0.87106836  0.36473921  0.36673299    -0.22500
C515        C  0.88438649  0.42715791  0.40326471    -0.05500
H516        H  0.92925898  0.42698088  0.39720320     0.15200
C517        C  0.89887981  0.34701562  0.35045156    -0.15700
H518        H  0.85460583  0.34745150  0.35823768     0.09500
H519        H  0.79835025  0.37027567  0.45312637     0.07400
H520        H  0.78555626  0.33722071  0.44186067     0.08600
H521        H  0.76731252  0.35320750  0.43625848     0.07600
H522        H  0.84855759  0.37900086  0.32058134     0.02500
H523        H  0.86108274  0.41194143  0.33239289     0.03000
H524        H  0.83142126  0.39569829  0.31242217     0.06500
H525        H  0.90300343  0.44385280  0.41043828     0.05500
H526        H  0.87138863  0.41937429  0.42204311    -0.00300
H527        H  0.87562311  0.43421175  0.38738004     0.01200
H528        H  0.88033201  0.33182112  0.34116029     0.04800
H529        H  0.90523553  0.33738388  0.36598725     0.06800
H530        H  0.91314034  0.35549559  0.33281128     0.07600
C531        C  0.10089853  0.55055232  0.01931528    -0.22000
C532        C  0.07494416  0.53993366  0.01136177     0.10000
C533        C  0.06022928  0.55038934  0.02237361     0.10400
C534        C  0.07182801  0.57121861  0.04142630    -0.16900
C535        C  0.09780240  0.58180837  0.04977795    -0.27300
C536        C  0.11271459  0.57163417  0.03804068     0.18700
C537        C  0.06370914  0.51807082  0.49109043     0.12700
C538        C  0.03227508  0.53942865  0.01416124    -0.11700
H539        H  0.06037185  0.57895875  0.05030830     0.13000
C540        C  0.14126308  0.58299161  0.04355423    -0.22500
H541        H  0.11216178  0.54262033  0.51035933     0.08600
C542        C  0.06548122  0.52220276  0.46140843     0.05000
C543        C  0.05487371  0.50086632  0.44299896    -0.19700
C544        C  0.04272637  0.47551901  0.45361638    -0.12000
C545        C  0.04042288  0.47143095  0.48346655     0.13700
C546        C  0.05123236  0.49284079  0.50180864    -0.22500
C547        C  0.07872797  0.54911210  0.44923533    -0.05500
H548        H  0.05647440  0.50398279  0.42014854     0.15200
C549        C  0.02589063  0.44498948  0.49681353    -0.15700
H550        H  0.04965936  0.48985228  0.02468562     0.09500
H551        H  0.15174606  0.58755360  0.02289281     0.07400
H552        H  0.14454905  0.56873651  0.05512180     0.08600
H553        H  0.14999531  0.60119327  0.05586376     0.07600
H554        H  0.02096622  0.51881270  0.02050322     0.02500
H555        H  0.03069140  0.54095371  0.99076394     0.03000
H556        H  0.02357115  0.54987119  0.02473362     0.06500
H557        H  0.07840505  0.54890450  0.42556632     0.05500
H558        H  0.09923814  0.55978869  0.45623832    -0.00300
H559        H  0.06884762  0.55953201  0.45673806     0.01200
H560        H  0.03940957  0.44152227  0.50970386     0.04800
H561        H  0.01625160  0.42918964  0.48107855     0.06800
H562        H  0.01052683  0.44396491  0.01102972     0.07600
C563        C  0.07117849  0.53376781  0.21327742    -0.22000
C564        C  0.07056470  0.53922364  0.24215298     0.10000
C565        C  0.07936620  0.56480206  0.25100388     0.10400
C566        C  0.08913458  0.58460598  0.23062518    -0.16900
C567        C  0.09061347  0.57937488  0.20170382    -0.27300
C568        C  0.08107397  0.55349735  0.19284433     0.18700
C569        C  0.06117749  0.51781128  0.26280915     0.12700
C570        C  0.07866639  0.57115120  0.28194840    -0.11700
H571        H  0.09626747  0.60435045  0.23741127     0.13000
C572        C  0.08055684  0.54633056  0.16191624    -0.22500
H573        H  0.06407063  0.51394844  0.20679002     0.08600
C574        C  0.03473782  0.50275254  0.26973223     0.05000
C575        C  0.02683793  0.48263041  0.28948722    -0.19700
C576        C  0.04476300  0.47707771  0.30218300    -0.12000
C577        C  0.07138626  0.49241107  0.29530133     0.13700
C578        C  0.07915499  0.51242684  0.27542187    -0.22500
C579        C  0.01493321  0.50787390  0.25615526    -0.05500
H580        H  0.00649035  0.47094861  0.29482910     0.15200
C581        C  0.09232368  0.48918125  0.30921075    -0.15700
H582        H  0.09948857  0.52424500  0.27004000     0.09500
H583        H  0.07056505  0.52507603  0.15889549     0.07400
H584        H  0.10055285  0.55440043  0.15366890     0.08600
H585        H  0.07007068  0.55378701  0.14917163     0.07600
H586        H  0.09067239  0.56549797  0.29467465     0.02500
H587        H  0.05844348  0.56051209  0.28992086     0.03000
H588        H  0.08625519  0.59211163  0.28521898     0.06500
H589        H  0.99507867  0.49429140  0.26396993     0.05500
H590        H  0.01515758  0.50562399  0.23268416    -0.00300
H591        H  0.01943946  0.52782086  0.26114584     0.01200
H592        H  0.10213353  0.48369341  0.29285085     0.04800
H593        H  0.08514569  0.47454097  0.32635221     0.06800
H594        H  0.10683044  0.50777076  0.31902487     0.07600
C595        C  0.14069410  0.41313603  0.39961187    -0.22000
C596        C  0.14555534  0.40155098  0.37633844     0.10000
C597        C  0.12733308  0.39102492  0.35410401     0.10400
C598        C  0.10458992  0.39239906  0.35562510    -0.16900
C599        C  0.09960006  0.40426440  0.37878702    -0.27300
C600        C  0.11830251  0.41519831  0.40094365     0.18700
C601        C  0.17039167  0.40162366  0.37515620     0.12700
C602        C  0.13194713  0.37838350  0.32876460    -0.11700
H603        H  0.09050850  0.38395657  0.33861434     0.13000
C604        C  0.11645282  0.43042578  0.42556067    -0.22500
H605        H  0.15500566  0.42149028  0.41643748     0.08600
C606        C  0.19278825  0.42252733  0.36317099     0.05000
C607        C  0.21588003  0.42176820  0.36235304    -0.19700
C608        C  0.21711283  0.40063383  0.37337157    -0.12000
C609        C  0.19454965  0.37957189  0.38517418     0.13700
C610        C  0.17151252  0.38045401  0.38608675    -0.22500
C611        C  0.19227510  0.44561519  0.35130151    -0.05500
H612        H  0.23315017  0.43782812  0.35324929     0.15200
C613        C  0.19378929  0.35557658  0.39619236    -0.15700
H614        H  0.15419363  0.36436551  0.39507884     0.09500
H615        H  0.13479114  0.44920649  0.42720722     0.07400
H616        H  0.11352334  0.41957133  0.44569854     0.08600
H617        H  0.10097343  0.43523324  0.42326414     0.07600
H618        H  0.13387494  0.36178470  0.33595596     0.02500
H619        H  0.14997687  0.39249626  0.31764068     0.03000
H620        H  0.11577020  0.37113040  0.31323569     0.06500
H621        H  0.21143800  0.46024788  0.34269655     0.05500
H622        H  0.18684211  0.45487076  0.36835555    -0.00300
H623        H  0.17792283  0.43947922  0.33377138     0.01200
H624        H  0.18891826  0.35328015  0.41924271     0.04800
H625        H  0.21230705  0.35582203  0.39335776     0.06800
H626        H  0.17868170  0.33847162  0.38456985     0.07600
C627        C  0.32323384  0.43030912  0.46023724    -0.22000
C628        C  0.32719233  0.40975849  0.46684145     0.10000
C629        C  0.31419700  0.38659400  0.45115060     0.10400
C630        C  0.29825686  0.38492926  0.42830971    -0.16900
C631        C  0.29468239  0.40572299  0.42128376    -0.27300
C632        C  0.30719437  0.42866425  0.43761692     0.18700
C633        C  0.34495845  0.41326197  0.49054820     0.12700
C634        C  0.31696528  0.36366958  0.45867195    -0.11700
H635        H  0.28865397  0.36740696  0.41570563     0.13000
C636        C  0.30487369  0.45209073  0.43133463    -0.22500
H637        H  0.33312682  0.44798072  0.47258051     0.08600
C638        C  0.37157368  0.42286749  0.48584637     0.05000
C639        C  0.38820947  0.42914268  0.00933058    -0.19700
C640        C  0.37896292  0.42672075  0.03740424    -0.12000
C641        C  0.35199391  0.41609414  0.04197245     0.13700
C642        C  0.33539401  0.40944802  0.01841521    -0.22500
C643        C  0.38256631  0.42747638  0.45609761    -0.05500
H644        H  0.40874960  0.43710916  0.00566903     0.15200
C645        C  0.34036503  0.41146532  0.07144620    -0.15700
H646        H  0.31487976  0.40200464  0.02169244     0.09500
H647        H  0.32439598  0.46889919  0.42714925     0.07400
H648        H  0.29636179  0.45647712  0.45007060     0.08600
H649        H  0.29267818  0.44967528  0.41255123     0.07600
H650        H  0.31029876  0.35757624  0.48089262     0.02500
H651        H  0.33748512  0.36873054  0.45685756     0.03000
H652        H  0.30527181  0.34701074  0.44436839     0.06500
H653        H  0.40382113  0.43535867  0.45625597     0.05500
H654        H  0.37870129  0.44152439  0.44495320    -0.00300
H655        H  0.37354244  0.40911827  0.44393909     0.01200
H656        H  0.34679560  0.43010116  0.08247840     0.04800
H657        H  0.34615784  0.39947685  0.08397255     0.06800
H658        H  0.31888358  0.40113679  0.07073987     0.07600
C659        C  0.32888942  0.40947516  0.21527782    -0.22000
C660        C  0.33747202  0.41504321  0.24353766     0.10000
C661        C  0.36408138  0.42652843  0.24962496     0.10400
C662        C  0.38169651  0.43280174  0.22718658    -0.16900
C663        C  0.37341862  0.42820463  0.19868392    -0.27300
C664        C  0.34654115  0.41594905  0.19264723     0.18700
C665        C  0.31863078  0.40989346  0.26662423     0.12700
C666        C  0.37395169  0.43278698  0.27980161    -0.11700
H667        H  0.40218467  0.44212118  0.23193992     0.13000
C668        C  0.33622059  0.40914516  0.16266198    -0.22500
H669        H  0.30833963  0.40043948  0.21094729     0.08600
C670        C  0.31095065  0.42798406  0.27354048     0.05000
C671        C  0.29594483  0.42414683  0.29802937    -0.19700
C672        C  0.28870257  0.40274725  0.31578806    -0.12000
C673        C  0.29530916  0.38394246  0.30796201     0.13700
C674        C  0.31031208  0.38784457  0.28348883    -0.22500
C675        C  0.31950885  0.45182512  0.25570801    -0.05500
H676        H  0.29087259  0.43851530  0.30409164     0.15200
C677        C  0.28694254  0.35962940  0.32489928    -0.15700
H678        H  0.31615967  0.37394114  0.27792451     0.09500
H679        H  0.34251810  0.42694200  0.14998021     0.07400
H680        H  0.31472740  0.39805714  0.16229745     0.08600
H681        H  0.34327177  0.39708956  0.15245584     0.07600
H682        H  0.36558065  0.41480689  0.29262504     0.02500
H683        H  0.36833823  0.44620258  0.28943764     0.03000
H684        H  0.39536482  0.44210702  0.28075589     0.06500
H685        H  0.31208546  0.46415373  0.26430652     0.05500
H686        H  0.31217202  0.44619718  0.23361719    -0.00300
H687        H  0.34097233  0.46344399  0.25525320     0.01200
H688        H  0.27620741  0.34258856  0.31080252     0.04800
H689        H  0.27396654  0.35736454  0.34292216     0.06800
H690        H  0.30425910  0.35963034  0.33343877     0.07600
C691        C  0.97928929  0.68958581  0.13009850    -0.22000
C692        C  0.97853763  0.66743114  0.11919354     0.10000
C693        C  0.95531810  0.64741272  0.10757900     0.10400
C694        C  0.93306831  0.64963659  0.10797325    -0.16900
C695        C  0.93351099  0.67142814  0.11968154    -0.27300
C696        C  0.95709807  0.69197876  0.13024746     0.18700
C697        C  0.00202782  0.66513291  0.12083589     0.12700
C698        C  0.95402685  0.62369062  0.09485409    -0.11700
H699        H  0.91502271  0.63397811  0.09975789     0.13000
C700        C  0.95969398  0.71680368  0.14128463    -0.22500
H701        H  0.99729119  0.70505992  0.13864393     0.08600
C702        C  0.02236468  0.67742013  0.10099654     0.05000
C703        C  0.04374211  0.67378037  0.10294455    -0.19700
C704        C  0.04516916  0.65796598  0.12415494    -0.12000
C705        C  0.02432428  0.64512831  0.14361999     0.13700
C706        C  0.00333662  0.64939023  0.14202424    -0.22500
C707        C  0.02134203  0.69410043  0.07763387    -0.05500
H708        H  0.05957518  0.68356069  0.08795215     0.15200
C709        C  0.02260724  0.62577657  0.16534136    -0.15700
H710        H  0.98738336  0.63966155  0.15690300     0.09500
H711        H  0.97493591  0.73329100  0.12899501     0.07400
H712        H  0.96535701  0.71926616  0.16409572     0.08600
H713        H  0.94163084  0.71757279  0.13924073     0.07600
H714        H  0.95856851  0.61330504  0.11134713     0.02500
H715        H  0.96821318  0.62937789  0.07715341     0.03000
H716        H  0.93449748  0.61013810  0.08622747     0.06500
H717        H  0.03870191  0.70200330  0.06368688     0.05500
H718        H  0.02034768  0.71058190  0.08705074    -0.00300
H719        H  0.00397428  0.68254015  0.06419907     0.01200
H720        H  0.02332185  0.63334138  0.18713637     0.04800
H721        H  0.03799050  0.62077392  0.16319923     0.06800
H722        H  0.00394941  0.60745217  0.16269324     0.07600
C723        C  0.83751809  0.67638352  0.21330471    -0.22000
C724        C  0.82963173  0.65324200  0.22799779     0.10000
C725        C  0.83880850  0.63673592  0.21921411     0.10400
C726        C  0.85465970  0.64313534  0.19499505    -0.16900
C727        C  0.86131596  0.66552915  0.17925970    -0.27300
C728        C  0.85338678  0.68282171  0.18907550     0.18700
C729        C  0.80985999  0.64540941  0.25074395     0.12700
C730        C  0.83136292  0.61209295  0.23502734    -0.11700
H731        H  0.86083939  0.62996393  0.18746576     0.13000
C732        C  0.86119365  0.70806211  0.17441838    -0.22500
H733        H  0.83062781  0.68913459  0.22029560     0.08600
C734        C  0.81620297  0.65501044  0.27880253     0.05000
C735        C  0.79657541  0.64609255  0.29956466    -0.19700
C736        C  0.77079275  0.62791517  0.29275858    -0.12000
C737        C  0.76460521  0.61813151  0.26460720     0.13700
C738        C  0.78417758  0.62733111  0.24393668    -0.22500
C739        C  0.84364679  0.67439461  0.28679699    -0.05500
H740        H  0.80131711  0.65345006  0.32115453     0.15200
C741        C  0.73798229  0.59713185  0.25572970    -0.15700
H742        H  0.77948843  0.61983257  0.22237995     0.09500
H743        H  0.87133165  0.72414868  0.18985385     0.07400
H744        H  0.84367690  0.70801054  0.16649195     0.08600
H745        H  0.87447548  0.71190671  0.15619768     0.07600
H746        H  0.81006893  0.59907703  0.23430354     0.02500
H747        H  0.83765273  0.61657491  0.25758428     0.03000
H748        H  0.84054515  0.60163990  0.22558801     0.06500
H749        H  0.84533324  0.67973735  0.30969231     0.05500
H750        H  0.85049042  0.69222192  0.27396771    -0.00300
H751        H  0.85635478  0.66617585  0.28263666     0.01200
H752        H  0.73024285  0.60468873  0.23920776     0.04800
H753        H  0.72395480  0.58929993  0.27352900     0.06800
H754        H  0.73929511  0.58071748  0.24658974     0.07600
C755        C  0.78508602  0.65105102  0.50154757    -0.22000
C756        C  0.80421738  0.64415415  0.00047259     0.10000
C757        C  0.80599513  0.63106490  0.47642100     0.10400
C758        C  0.78821273  0.62471710  0.45407648    -0.16900
C759        C  0.76839801  0.63097197  0.45511575    -0.27300
C760        C  0.76713256  0.64471229  0.47930133     0.18700
C761        C  0.82148611  0.64985418  0.02538325     0.12700
C762        C  0.82665491  0.62374064  0.47441163    -0.11700
H763        H  0.78963677  0.61434413  0.43588744     0.13000
C764        C  0.74713433  0.65288202  0.48226492    -0.22500
H765        H  0.78400867  0.66116699  0.02020850     0.08600
C766        C  0.84364329  0.67435139  0.02944697     0.05000
C767        C  0.85914875  0.67875249  0.05365531    -0.19700
C768        C  0.85286921  0.65918873  0.07382087    -0.12000
C769        C  0.83089915  0.63448109  0.06939168     0.13700
C770        C  0.81537860  0.63023823  0.04533613    -0.22500
C771        C  0.85088426  0.69571586  0.50819022    -0.05500
H772        H  0.87608062  0.69758860  0.05705496     0.15200
C773        C  0.82353177  0.61199897  0.08917137    -0.15700
H774        H  0.79844273  0.61138236  0.04196998     0.09500
H775        H  0.74991219  0.66419052  0.50204835     0.07400
H776        H  0.72746052  0.63563036  0.48332277     0.08600
H777        H  0.74855706  0.66528210  0.46398613     0.07600
H778        H  0.82441663  0.61051289  0.99212846     0.02500
H779        H  0.84605839  0.64135621  0.47577921     0.03000
H780        H  0.82555550  0.61381820  0.45401040     0.06500
H781        H  0.86889519  0.71359626  0.51444277     0.05500
H782        H  0.83509607  0.70030066  0.50662129    -0.00300
H783        H  0.85405487  0.68958122  0.48695065     0.01200
H784        H  0.80414226  0.60562488  0.09845629     0.04800
H785        H  0.83741413  0.61653050  0.10686437     0.06800
H786        H  0.82274459  0.59572618  0.07697117     0.07600
C787        C  0.67074549  0.75021136  0.35763062    -0.22000
C788        C  0.69248893  0.74997519  0.36838847     0.10000
C789        C  0.71282480  0.77261540  0.38067903     0.10400
C790        C  0.71099175  0.79507018  0.38184207    -0.16900
C791        C  0.68931502  0.79540393  0.37093811    -0.27300
C792        C  0.66878218  0.77258342  0.35892475     0.18700
C793        C  0.69317608  0.72555815  0.36768431     0.12700
C794        C  0.73634193  0.77297752  0.39274931    -0.11700
H795        H  0.72668929  0.81257568  0.39098139     0.13000
C796        C  0.64429102  0.77091976  0.34795703    -0.22500
H797        H  0.65503041  0.73269231  0.34851919     0.08600
C798        C  0.68012386  0.70624215  0.38839669     0.05000
C799        C  0.68232091  0.68400883  0.38787745    -0.19700
C800        C  0.69736447  0.68054076  0.36718392    -0.12000
C801        C  0.71070502  0.70018553  0.34649475     0.13700
C802        C  0.70801440  0.72219245  0.34680396    -0.22500
C803        C  0.66412299  0.70926002  0.41127454    -0.05500
H804        H  0.67203996  0.66911019  0.40371051     0.15200
C805        C  0.72901254  0.69960276  0.32472596    -0.15700
H806        H  0.71826220  0.73728706  0.33114679     0.09500
H807        H  0.62739423  0.75533286  0.35942838     0.07400
H808        H  0.64222367  0.76631244  0.32484806     0.08600
H809        H  0.64377283  0.78898613  0.35105174     0.07600
H810        H  0.74641649  0.76854865  0.37569315     0.02500
H811        H  0.73041174  0.75832813  0.40991317     0.03000
H812        H  0.75027556  0.79212394  0.40189933     0.06500
H813        H  0.65547337  0.69251941  0.42605227     0.05500
H814        H  0.64812332  0.71086541  0.40140858    -0.00300
H815        H  0.67645764  0.72692559  0.42394559     0.01200
H816        H  0.72109322  0.69827130  0.30299963     0.04800
H817        H  0.73293760  0.68360412  0.32774883     0.06800
H818        H  0.74801592  0.71770944  0.32626158     0.07600
C819        C  0.65844245  0.87087954  0.46017551    -0.22000
C820        C  0.68021889  0.89301534  0.47079324     0.10000
C821        C  0.70466595  0.90144457  0.45826295     0.10400
C822        C  0.70667030  0.88784198  0.43491155    -0.16900
C823        C  0.68479150  0.86601175  0.42388059    -0.27300
C824        C  0.66035905  0.85734813  0.43673538     0.18700
C825        C  0.67674286  0.90756664  0.49435759     0.12700
C826        C  0.72844770  0.92519974  0.46901357    -0.11700
H827        H  0.72528351  0.89460593  0.42473457     0.13000
C828        C  0.63582195  0.83452517  0.42571819    -0.22500
H829        H  0.63968599  0.86448622  0.46983664     0.08600
C830        C  0.66677896  0.92413420  0.48931255     0.05000
C831        C  0.66285492  0.93675385  0.01237628    -0.19700
C832        C  0.66875853  0.93330354  0.04043634    -0.12000
C833        C  0.68020863  0.91781803  0.04517821     0.13700
C834        C  0.68352163  0.90476197  0.02212909    -0.22500
C835        C  0.66019950  0.92840757  0.45958372    -0.05500
H836        H  0.65430226  0.94870575  0.00854694     0.15200
C837        C  0.69005868  0.91524099  0.07386547    -0.15700
H838        H  0.69173771  0.89248048  0.02579772     0.09500
H839        H  0.62200403  0.84089579  0.41941310     0.07400
H840        H  0.62689327  0.81979960  0.44279684     0.08600
H841        H  0.63900177  0.82521150  0.40695820     0.07600
H842        H  0.73197313  0.92243532  0.99160642     0.02500
H843        H  0.72568879  0.94214945  0.46740022     0.03000
H844        H  0.74592293  0.92937968  0.45650516     0.06500
H845        H  0.65301100  0.94227245  0.45932152     0.05500
H846        H  0.64489567  0.90987661  0.45047086    -0.00300
H847        H  0.67771148  0.93628163  0.44589408     0.01200
H848        H  0.67832651  0.89505426  0.08155445     0.04800
H849        H  0.68987106  0.92849411  0.09018458     0.06800
H850        H  0.71051906  0.92004716  0.07176201     0.07600
C851        C  0.70785006  0.90724068  0.28831002    -0.22000
C852        C  0.68652108  0.89424319  0.27015254     0.10000
C853        C  0.66816652  0.86807936  0.27528021     0.10400
C854        C  0.67097100  0.85575594  0.29927318    -0.16900
C855        C  0.69164551  0.86908190  0.31828375    -0.27300
C856        C  0.71079282  0.89492687  0.31222937     0.18700
C857        C  0.68252986  0.90881818  0.24721713     0.12700
C858        C  0.64514075  0.85350344  0.25599212    -0.11700
H859        H  0.65635985  0.83596121  0.30391236     0.13000
C860        C  0.73457605  0.91001060  0.33037189    -0.22500
H861        H  0.72202776  0.92727345  0.28407590     0.08600
C862        C  0.67033421  0.92326882  0.25299259     0.05000
C863        C  0.66481145  0.93504070  0.23043982    -0.19700
C864        C  0.67079189  0.93234198  0.20214440    -0.12000
C865        C  0.68392328  0.91862122  0.19650049     0.13700
C866        C  0.68968351  0.90705808  0.21921711    -0.22500
C867        C  0.66245309  0.92559720  0.28288145    -0.05500
H868        H  0.65485028  0.94560107  0.23483335     0.15200
C869        C  0.69236522  0.91651577  0.16680551    -0.15700
H870        H  0.69929105  0.89611217  0.21510469     0.09500
H871        H  0.73437096  0.92686661  0.33993102     0.07400
H872        H  0.75212528  0.91705845  0.31687244     0.08600
H873        H  0.73615711  0.89836832  0.34773885     0.07600
H874        H  0.65181696  0.85298382  0.23403980     0.02500
H875        H  0.63342957  0.86316661  0.25564165     0.03000
H876        H  0.63248983  0.83329223  0.26323409     0.06500
H877        H  0.65280643  0.93731709  0.28361570     0.05500
H878        H  0.67980404  0.93502588  0.29677765    -0.00300
H879        H  0.64874866  0.90612281  0.29143410     0.01200
H880        H  0.70388408  0.90663772  0.16672500     0.04800
H881        H  0.70458454  0.93610248  0.15766573     0.06800
H882        H  0.67525528  0.90516410  0.15299893     0.07600
C883        C  0.76759495  0.08223242  0.10884532    -0.22000
C884        C  0.77061782  0.10196628  0.12730769     0.10000
C885        C  0.74980503  0.09796417  0.14502123     0.10400
C886        C  0.72634216  0.07438032  0.14362795    -0.16900
C887        C  0.72316847  0.05458029  0.12503425    -0.27300
C888        C  0.74439167  0.05839521  0.10788389     0.18700
C889        C  0.79580390  0.12659091  0.12789033     0.12700
C890        C  0.75247434  0.11841357  0.16571231    -0.11700
H891        H  0.71028338  0.07144878  0.15699419     0.13000
C892        C  0.74398835  0.03755848  0.08943318    -0.22500
H893        H  0.78371111  0.08526410  0.09550283     0.08600
C894        C  0.81801074  0.12835811  0.14073234     0.05000
C895        C  0.84133181  0.15214262  0.14075589    -0.19700
C896        C  0.84293528  0.17419071  0.12829092    -0.12000
C897        C  0.82047501  0.17251655  0.11607643     0.13700
C898        C  0.79735114  0.14864944  0.11564412    -0.22500
C899        C  0.81703598  0.10525082  0.15466733    -0.05500
H900        H  0.85850558  0.15349604  0.15021750     0.15200
C901        C  0.81989403  0.19556780  0.10409547    -0.15700
H902        H  0.78023652  0.14730093  0.10600719     0.09500
H903        H  0.76043727  0.03482461  0.09537456     0.07400
H904        H  0.74611963  0.04345508  0.06671812     0.08600
H905        H  0.72621490  0.01853870  0.09183194     0.07600
H906        H  0.75635452  0.13608536  0.15400514     0.02500
H907        H  0.76869714  0.12318589  0.18060478     0.03000
H908        H  0.73460085  0.11187685  0.17851343     0.06500
H909        H  0.83592246  0.11015431  0.16432330     0.05500
H910        H  0.81208522  0.08982436  0.13864736    -0.00300
H911        H  0.80218668  0.09781839  0.17178890     0.01200
H912        H  0.81547863  0.19265354  0.08096191     0.04800
H913        H  0.83829462  0.21397654  0.10706379     0.06800
H914        H  0.80454536  0.19765080  0.11501765     0.07600
C915        C  0.95061975  0.29043802  0.27662724    -0.22000
C916        C  0.95645475  0.29959509  0.24862164     0.10000
C917        C  0.97408848  0.32594800  0.24358021     0.10400
C918        C  0.98504563  0.34277987  0.26680511    -0.16900
C919        C  0.97842423  0.33396771  0.29501524    -0.27300
C920        C  0.96129312  0.30724211  0.29996667     0.18700
C921        C  0.94258315  0.28161262  0.22487385     0.12700
C922        C  0.98094634  0.33634322  0.21366363    -0.11700
H923        H  0.99815408  0.36313341  0.26283529     0.13000
C924        C  0.95433065  0.29608864  0.32962139    -0.22500
H925        H  0.93714026  0.27009054  0.28018289     0.08600
C926        C  0.95192250  0.26659087  0.21200722     0.05000
C927        C  0.93856545  0.25081889  0.18862785    -0.19700
C928        C  0.91601821  0.24965648  0.17811767    -0.12000
C929        C  0.90651365  0.26448288  0.19134849     0.13700
C930        C  0.91987147  0.28015339  0.21468089    -0.22500
C931        C  0.97608333  0.26749664  0.22276903    -0.05500
H932        H  0.94590137  0.23961590  0.17822718     0.15200
C933        C  0.88288789  0.26493251  0.18093088    -0.15700
H934        H  0.91282057  0.29178573  0.22466325     0.09500
H935        H  0.94247386  0.27468327  0.32923245     0.07400
H936        H  0.94276867  0.30326119  0.34072470     0.08600
H937        H  0.97220628  0.30145199  0.34190232     0.07600
H938        H  0.96327406  0.33305271  0.20227354     0.02500
H939        H  0.98963527  0.32639632  0.20203589     0.03000
H940        H  0.99508489  0.35739440  0.21346511     0.06500
H941        H  0.98078188  0.25463320  0.21025459     0.05500
H942        H  0.97338436  0.26119951  0.24537436    -0.00300
H943        H  0.99272405  0.28749170  0.22121456     0.01200
H944        H  0.86820747  0.25822008  0.19820835     0.04800
H945        H  0.87380893  0.25254864  0.16203289     0.06800
H946        H  0.88833899  0.28498464  0.17504013     0.07600
C947        C  0.94698309  0.28736756  0.47301726    -0.22000
C948        C  0.94929813  0.29610281  0.00113112     0.10000
C949        C  0.96398158  0.32274254  0.00706546     0.10400
C950        C  0.97603631  0.34018486  0.48461988    -0.16900
C951        C  0.97336085  0.33165875  0.45626658    -0.27300
C952        C  0.95871096  0.30481070  0.45039018     0.18700
C953        C  0.93620401  0.27716186  0.02426823     0.12700
C954        C  0.96654388  0.33275218  0.03706876    -0.05100
H955        H  0.98703933  0.36069511  0.48918175     0.13000
C956        C  0.95582427  0.29429675  0.42055748    -0.22500
H957        H  0.93574964  0.26680831  0.46879778     0.08600
C958        C  0.91037082  0.26887862  0.03195505     0.05000
C959        C  0.89969026  0.25309670  0.05600351    -0.19700
C960        C  0.91435010  0.24556650  0.07252198    -0.12000
C961        C  0.93979964  0.25278608  0.06383964     0.13700
C962        C  0.95044627  0.26863769  0.03986518    -0.22500
C963        C  0.89443126  0.27738355  0.01530842    -0.05500
H964        H  0.88019416  0.24752510  0.06268060     0.15200
C965        C  0.95619139  0.24407764  0.07924069    -0.15700
H966        H  0.97019117  0.27482820  0.03360279     0.09500
H967        H  0.94533215  0.27285652  0.42034943     0.07400
H968        H  0.97521375  0.30125668  0.41095406     0.08600
H969        H  0.94459934  0.30048008  0.40722369     0.07600
H970        H  0.97585472  0.32462835  0.05073424     0.02500
H971        H  0.94710199  0.32700459  0.04578698     0.03000
H972        H  0.97850132  0.35413597  0.03795476     0.06500
H973        H  0.87465959  0.26930901  0.02432623     0.05500
H974        H  0.89259081  0.27074138  0.99288900    -0.00300
H975        H  0.90391833  0.29876183  0.01566600     0.01200
H976        H  0.96228268  0.23389920  0.06405871     0.04800
H977        H  0.94580711  0.23057270  0.09697494     0.06800
H978        H  0.97371131  0.26113723  0.08794846     0.07600
C979        C  0.34112730  0.90966216  0.36740853    -0.22000
C980        C  0.34136029  0.93175967  0.37763940     0.10000
C981        C  0.31830117  0.92992335  0.38789867     0.10400
C982        C  0.29540570  0.90589997  0.38766958    -0.16900
C983        C  0.29509925  0.88374232  0.37742731    -0.27300
C984        C  0.31831478  0.88555108  0.36743484     0.18700
C985        C  0.36608018  0.95658314  0.37785790     0.12700
C986        C  0.31795879  0.95322219  0.39943803    -0.11700
H987        H  0.27759791  0.90435184  0.39548052     0.13000
C988        C  0.31998393  0.86247435  0.35755706    -0.22500
H989        H  0.35897926  0.91119275  0.35976717     0.08600
C990        C  0.38493129  0.96222793  0.39899349     0.05000
C991        C  0.40810323  0.98600813  0.39826956    -0.19700
C992        C  0.41281375  0.00432826  0.37696333    -0.12000
C993        C  0.39328020  0.99901528  0.35650953     0.13700
C994        C  0.37042537  0.97494449  0.35690366    -0.22500
C995        C  0.38054172  0.94319219  0.42232653    -0.05500
H996        H  0.42287754  0.99007727  0.41409169     0.15200
C997        C  0.39510712  0.01842063  0.33479662    -0.15700
H998        H  0.35557890  0.97064249  0.34108028     0.09500
H999        H  0.33456908  0.86078083  0.37056485     0.07400
H1000       H  0.32608703  0.86506081  0.33487055     0.08600
H1001       H  0.30146370  0.84402693  0.35958592     0.07600
H1002       H  0.32376281  0.96804326  0.38250363     0.02500
H1003       H  0.33163673  0.96146482  0.41758902     0.03000
H1004       H  0.29840664  0.94827014  0.40710854     0.06500
H1005       H  0.39706606  0.95086674  0.43742746     0.05500
H1006       H  0.37810577  0.92508310  0.41296940    -0.00300
H1007       H  0.36286458  0.93879681  0.43454080     0.01200
H1008       H  0.39595126  0.01157695  0.31303823     0.04800
H1009       H  0.41196934  0.03797407  0.33794659     0.06800
H1010       H  0.37766285  0.02044148  0.33640634     0.07600
C1011       C  0.18987356  0.78965271  0.46662991    -0.22000
C1012       C  0.20361990  0.77957459  0.48047108     0.10000
C1013       C  0.22852745  0.78607035  0.47085837     0.10400
C1014       C  0.23894468  0.80208487  0.44701695    -0.16900
C1015       C  0.22481493  0.81134532  0.43237946    -0.27300
C1016       C  0.20021999  0.80559365  0.44265598     0.18700
C1017       C  0.19090297  0.76065804  0.50361137     0.12700
C1018       C  0.24371551  0.77541640  0.48521789    -0.11700
H1019       H  0.25774922  0.80649280  0.43896848     0.13000
C1020       C  0.18449428  0.81593499  0.42891285    -0.22500
H1021       H  0.17076866  0.78463860  0.47425562     0.08600
C1022       C  0.19341512  0.76825323  0.03240170     0.05000
C1023       C  0.18227796  0.74923886  0.05359477    -0.19700
C1024       C  0.16834046  0.72288859  0.04650337    -0.12000
C1025       C  0.16561039  0.71540211  0.01746824     0.13700
C1026       C  0.17699896  0.73446011  0.49641227    -0.22500
C1027       C  0.20784904  0.79635084  0.04063606    -0.05500
H1028       H  0.18426791  0.75496808  0.07579407     0.15200
C1029       C  0.15170273  0.68743576  0.00847366    -0.15700
H1030       H  0.17540353  0.72894827  0.47416013     0.09500
H1031       H  0.18018684  0.82692624  0.44492901     0.07400
H1032       H  0.16597781  0.79963202  0.42094255     0.08600
H1033       H  0.19465064  0.82912111  0.41085887     0.07600
H1034       H  0.23281024  0.75400987  0.48407520     0.02500
H1035       H  0.24706286  0.78146905  0.50790350     0.03000
H1036       H  0.26284509  0.78240458  0.47491928     0.06500
H1037       H  0.20794960  0.79895042  0.06408683     0.05500
H1038       H  0.19850867  0.80639446  0.03064551    -0.00300
H1039       H  0.22822051  0.80547271  0.03325355     0.01200
H1040       H  0.13085575  0.67818028  0.01393606     0.04800
H1041       H  0.16038973  0.67711276  0.01927050     0.06800
H1042       H  0.15305399  0.68530330  0.48510683     0.07600
C1043       C  0.18659521  0.78777596  0.29354973    -0.22000
C1044       C  0.19939519  0.77702176  0.27891331     0.10000
C1045       C  0.22427045  0.78271349  0.28783357     0.10400
C1046       C  0.23562763  0.79876227  0.31153153    -0.16900
C1047       C  0.22257034  0.80899186  0.32665841    -0.27300
C1048       C  0.19786265  0.80370946  0.31737771     0.18700
C1049       C  0.18622187  0.75922073  0.25479295     0.12700
C1050       C  0.23846248  0.77117877  0.27294422    -0.11700
H1051       H  0.25446916  0.80271881  0.31887907     0.13000
C1052       C  0.18300057  0.81471112  0.33187997    -0.22500
H1053       H  0.16759373  0.78352788  0.28645622     0.08600
C1054       C  0.16633165  0.73356588  0.25939970     0.05000
C1055       C  0.15601176  0.71673970  0.23610205    -0.19700
C1056       C  0.16526060  0.72480834  0.20821042    -0.12000
C1057       C  0.18468648  0.75095728  0.20361205     0.13700
C1058       C  0.19475285  0.76778124  0.22701013    -0.22500
C1059       C  0.15653786  0.72370389  0.28899297    -0.05500
H1060       H  0.14114407  0.69689094  0.23991680     0.15200
C1061       C  0.19488859  0.76156692  0.17432002    -0.15700
H1062       H  0.20985338  0.78764941  0.22375887     0.09500
H1063       H  0.16452084  0.79873286  0.34039292     0.07400
H1064       H  0.17861633  0.82583752  0.31618276     0.08600
H1065       H  0.19379768  0.82793519  0.34967663     0.07600
H1066       H  0.24229341  0.77772011  0.25044099     0.02500
H1067       H  0.22660404  0.74978484  0.27353395     0.03000
H1068       H  0.25734731  0.77702480  0.28323433     0.06500
H1069       H  0.14135585  0.70296973  0.28886685     0.05500
H1070       H  0.14803159  0.73473343  0.29852149    -0.00300
H1071       H  0.17274765  0.72594485  0.30255945     0.01200
H1072       H  0.17861952  0.75800468  0.16004166     0.04800
H1073       H  0.20555889  0.75242778  0.16541165     0.06800
H1074       H  0.20858242  0.78271908  0.17482326     0.07600
C1075       C  0.43064000  0.33334604  0.10618747    -0.22000
C1076       C  0.44553287  0.32999345  0.12687916     0.10000
C1077       C  0.45974314  0.34974140  0.14678838     0.10400
C1078       C  0.45910929  0.37277805  0.14521659    -0.16900
C1079       C  0.44456152  0.37647312  0.12418687    -0.27300
C1080       C  0.42953808  0.35614994  0.10484789     0.18700
C1081       C  0.44619121  0.30569702  0.12707896     0.12700
C1082       C  0.47560654  0.34648235  0.16957146    -0.11700
H1083       H  0.47040998  0.38818410  0.16019456     0.13000
C1084       C  0.41125550  0.35711094  0.08340225    -0.22500
H1085       H  0.41945106  0.31784489  0.09125218     0.08600
C1086       C  0.42710105  0.28352008  0.14126863     0.05000
C1087       C  0.42849677  0.26085304  0.14052401    -0.19700
C1088       C  0.44856573  0.25997365  0.12592202    -0.12000
C1089       C  0.46808699  0.28251401  0.11234651     0.13700
C1090       C  0.46641270  0.30500156  0.11281766    -0.22500
C1091       C  0.40529029  0.28381676  0.15705139    -0.05500
H1092       H  0.41362439  0.24358759  0.15095570     0.15200
C1093       C  0.49130636  0.28387498  0.09790977    -0.15700
H1094       H  0.48118395  0.32226725  0.10227055     0.09500
H1095       H  0.39164475  0.34005139  0.08638518     0.07400
H1096       H  0.41802639  0.35656443  0.06150276     0.08600
H1097       H  0.40910768  0.37432353  0.08552017     0.07600
H1098       H  0.49066000  0.34335646  0.15958102     0.02500
H1099       H  0.46289523  0.32958878  0.18311208     0.03000
H1100       H  0.48543595  0.36375417  0.18353147     0.06500
H1101       H  0.39208806  0.26486363  0.16709401     0.05500
H1102       H  0.39379389  0.28838541  0.14206984    -0.00300
H1103       H  0.41324315  0.29866515  0.17410888     0.01200
H1104       H  0.49093453  0.28771860  0.07482271     0.04800
H1105       H  0.49233357  0.26603797  0.10037184     0.06800
H1106       H  0.50926370  0.29986171  0.10736104     0.07600
C1107       C  0.43256288  0.15069692  0.20780113    -0.22000
C1108       C  0.45672862  0.16129802  0.22115484     0.10000
C1109       C  0.47754509  0.18491683  0.21137769     0.10400
C1110       C  0.47382378  0.19722933  0.18798422    -0.16900
C1111       C  0.44982674  0.18631379  0.17412954    -0.27300
C1112       C  0.42880202  0.16296668  0.18438462     0.18700
C1113       C  0.46019408  0.14697267  0.24473393     0.12700
C1114       C  0.50369684  0.19692916  0.22547720    -0.11700
H1115       H  0.48985989  0.21511742  0.17998234     0.13000
C1116       C  0.40220549  0.15060991  0.17128244    -0.22500
H1117       H  0.41661489  0.13262389  0.21555176     0.08600
C1118       C  0.45428023  0.14971201  0.27313393     0.05000
C1119       C  0.45981306  0.13722277  0.29495520    -0.19700
C1120       C  0.47086554  0.12182272  0.28894648    -0.12000
C1121       C  0.47604197  0.11852079  0.26022046     0.13700
C1122       C  0.47062479  0.13119377  0.23850980    -0.22500
C1123       C  0.44258228  0.16617150  0.28036811    -0.05500
H1124       H  0.45573612  0.13971395  0.31687821     0.15200
C1125       C  0.48837987  0.10275205  0.25227293    -0.15700
H1126       H  0.47506334  0.12927765  0.21654117     0.09500
H1127       H  0.38793343  0.14855258  0.18775997     0.07400
H1128       H  0.39684348  0.13116961  0.16305922     0.08600
H1129       H  0.40082526  0.16200441  0.15349008     0.07600
H1130       H  0.51152932  0.18364413  0.22394664     0.02500
H1131       H  0.50189567  0.20076064  0.24827624     0.03000
H1132       H  0.51777853  0.21548857  0.21526875     0.06500
H1133       H  0.43926478  0.16635837  0.30364368     0.05500
H1134       H  0.42367810  0.15852929  0.26939174    -0.00300
H1135       H  0.45573817  0.18634875  0.27336684     0.01200
H1136       H  0.49223424  0.10351694  0.22902371     0.04800
H1137       H  0.47530298  0.08221007  0.25799927     0.06800
H1138       H  0.50713789  0.11026488  0.26354275     0.07600
C1139       C  0.43208809  0.15420908  0.03433307    -0.22000
C1140       C  0.45558290  0.16724059  0.01949302     0.10000
C1141       C  0.47473344  0.19214251  0.02823866     0.10400
C1142       C  0.47044219  0.20299654  0.05262968    -0.16900
C1143       C  0.44752578  0.18937619  0.06845417    -0.27300
C1144       C  0.42774577  0.16503571  0.05873224     0.18700
C1145       C  0.46069461  0.15359931  0.99642862     0.12700
C1146       C  0.49998138  0.20682226  0.01236453    -0.11700
H1147       H  0.48548708  0.22170547  0.06013137     0.13000
C1148       C  0.40197915  0.15003601  0.07357333    -0.22500
H1149       H  0.41735331  0.13517876  0.02728032     0.08600
C1150       C  0.47145521  0.13793371  0.00255135     0.05000
C1151       C  0.47686188  0.12590108  0.48014807    -0.19700
C1152       C  0.47205053  0.12939616  0.45167013    -0.12000
C1153       C  0.46092511  0.14494370  0.44562274     0.13700
C1154       C  0.45530328  0.15678382  0.46820015    -0.22500
C1155       C  0.47752767  0.13420838  0.03274750    -0.05500
H1156       H  0.48546030  0.11413783  0.48488822     0.15200
C1157       C  0.45432983  0.14868970  0.41566616    -0.15700
H1158       H  0.44691689  0.16880633  0.46385846     0.09500
H1159       H  0.39938466  0.13136914  0.08128275     0.07400
H1160       H  0.38623026  0.14612598  0.05831697     0.08600
H1161       H  0.39997125  0.16051294  0.09197973     0.07600
H1162       H  0.49619603  0.20993547  0.98998390     0.02500
H1163       H  0.51027402  0.19572066  0.01248624     0.03000
H1164       H  0.51287931  0.22598391  0.02215818     0.06500
H1165       H  0.48602854  0.12146656  0.03377958     0.05500
H1166       H  0.45953575  0.12527255  0.04569622    -0.00300
H1167       H  0.49162277  0.15313860  0.04220253     0.01200
H1168       H  0.44415732  0.15991905  0.41528423     0.04800
H1169       H  0.44143513  0.12963573  0.40566299     0.06800
H1170       H  0.47224422  0.15950357  0.40283276     0.07600
C1171       C  0.44797821  0.23505315  0.62441911     0.03600
C1172       C  0.44858084  0.22259513  0.64947794    -0.12500
C1173       C  0.44790840  0.19890747  0.64801086     0.01100
C1174       C  0.44677297  0.18774917  0.62141227    -0.11100
C1175       C  0.44612791  0.20004762  0.59630324     0.03600
C1176       C  0.44649939  0.22355847  0.59787853    -0.10500
H1177       H  0.44982547  0.23142096  0.67003505     0.09200
H1178       H  0.44702784  0.16980384  0.62023254     0.06700
H1179       H  0.44607728  0.23311721  0.57845325     0.06600
C1180       C  0.27029037  0.85910276  0.87797280     0.03600
C1181       C  0.25807128  0.84669190  0.85248850    -0.12500
C1182       C  0.23447005  0.82330951  0.85321002     0.01100
C1183       C  0.22319712  0.81236175  0.87951715    -0.11100
C1184       C  0.23531291  0.82463393  0.90502413     0.03600
C1185       C  0.25881072  0.84803560  0.90418040    -0.10500
H1186       H  0.26702721  0.85507422  0.83219682     0.09200
H1187       H  0.20543822  0.79382817  0.88014413     0.06700
H1188       H  0.26842799  0.85734197  0.92389930     0.06600
C1189       C  0.86840076  0.19835481  0.62750146     0.03600
C1190       C  0.88073574  0.21102322  0.65289096    -0.12500
C1191       C  0.90412846  0.23466961  0.65190655     0.01100
C1192       C  0.91541939  0.24529050  0.62553669    -0.11100
C1193       C  0.90348717  0.23265549  0.60009493     0.03600
C1194       C  0.88002148  0.20916755  0.60117369    -0.10500
H1195       H  0.87171607  0.20302633  0.67326778     0.09200
H1196       H  0.93307620  0.26391315  0.62478316     0.06700
H1197       H  0.87049588  0.19959123  0.58153005     0.06600
C1198       C  0.68928418  0.82011331  0.87126678     0.03600
C1199       C  0.68786395  0.83120828  0.89715974    -0.12500
C1200       C  0.68761668  0.85453403  0.89716123     0.01100
C1201       C  0.68932079  0.86693000  0.87130577    -0.11100
C1202       C  0.69122432  0.85629320  0.84541871     0.03600
C1203       C  0.69098480  0.83276843  0.84548339    -0.10500
H1204       H  0.68647501  0.82152108  0.91712757     0.09200
H1205       H  0.68873819  0.88472936  0.87129577     0.06700
H1206       H  0.69211091  0.82429252  0.82549464     0.06600
C1207       C  0.90868955  0.67121594  0.62186203     0.03600
C1208       C  0.89408885  0.66821710  0.59724780    -0.12500
C1209       C  0.86928321  0.66508619  0.59943338     0.01100
C1210       C  0.85934645  0.66567435  0.62632679    -0.11100
C1211       C  0.87365459  0.66847911  0.65108662     0.03600
C1212       C  0.89824958  0.67106044  0.64877864    -0.10500
H1213       H  0.90163324  0.66736378  0.57650256     0.09200
H1214       H  0.83994962  0.66272914  0.62805923     0.06700
H1215       H  0.90894986  0.67225106  0.66790060     0.06600
C1216       C  0.24216491  0.40120643  0.87193267     0.03600
C1217       C  0.25560694  0.40236344  0.89699153    -0.12500
C1218       C  0.27968936  0.40362987  0.89538819     0.01100
C1219       C  0.29006236  0.40335812  0.86873247    -0.11100
C1220       C  0.27678764  0.40206163  0.84364548     0.03600
C1221       C  0.25304485  0.40142539  0.84530097    -0.10500
H1222       H  0.24752688  0.40260640  0.91760483     0.09200
H1223       H  0.30875620  0.40455344  0.86747884     0.06700
H1224       H  0.24291565  0.40081578  0.82591389     0.06600
O1225       O  0.97496812  0.34957843  0.84051322    -0.78000
C1226       C  0.98519649  0.35139322  0.93353732     0.83000
O1227       O  0.96336908  0.41792520  0.87692095    -0.79100
O1228       O  0.03908899  0.43670818  0.93545988    -0.80600
O1229       O  0.06519543  0.40552847  0.85480648    -0.80400
O1230       O  0.01079889  0.37370502  0.81552757    -0.79000
Zn1231     Zn  0.97773949  0.36967224  0.87580535     1.55700
O1232       O  0.06318165  0.40283689  0.90219175    -0.80400
Cd1233     Cd  0.03148670  0.40490609  0.84274459     1.59700
Cd1234     Cd  0.00280130  0.43107540  0.87705512     1.59600
O1235       O  0.04156231  0.43852617  0.82036848    -0.80400
O1236       O  0.01018045  0.40199251  0.87699903    -1.90900
Cd1237     Cd  0.02953101  0.40341848  0.91237676     1.59900
O1238       O  0.01950181  0.45460069  0.84218465    -0.80400
O1239       O  0.00676186  0.37189314  0.93823774    -0.79000
C1240       C  0.94419072  0.39493768  0.87614132     0.83500
C1241       C  0.98876591  0.35329419  0.81842124     0.83200
O1242       O  0.97303522  0.34798237  0.91024773    -0.78000
C1243       C  0.07474623  0.40444046  0.87873446     0.84000
O1244       O  0.94760595  0.37564783  0.87565605    -0.78100
C1245       C  0.03487056  0.45558054  0.82274847     0.84100
C1246       C  0.03293605  0.45415330  0.93282167     0.84400
O1247       O  0.01908234  0.45425656  0.91227884    -0.80500
O1248       O  0.17051809  0.70737412  0.59239161    -0.78000
C1249       C  0.15469094  0.70518586  0.68500717     0.83000
O1250       O  0.17545976  0.63586953  0.63246784    -0.79100
O1251       O  0.09833856  0.62000463  0.68453539    -0.80600
O1252       O  0.07913928  0.65473775  0.60209256    -0.80400
O1253       O  0.13489502  0.68407648  0.56665119    -0.79000
Zn1254     Zn  0.16486248  0.68666545  0.62838403     1.55700
O1255       O  0.07876191  0.65624519  0.64954548    -0.80400
Cd1256     Cd  0.11212387  0.65325427  0.59261952     1.59700
Cd1257     Cd  0.13670962  0.62455930  0.62803829     1.59600
O1258       O  0.10182078  0.62010459  0.56947291    -0.80400
O1259       O  0.13156261  0.65500502  0.62779139    -1.90900
Cd1260     Cd  0.11082484  0.65392389  0.66179740     1.59900
O1261       O  0.12190578  0.60226667  0.59167122    -0.80400
O1262       O  0.13268787  0.68490380  0.68846127    -0.79000
C1263       C  0.19535518  0.65834746  0.63410304     0.83500
C1264       C  0.15732339  0.70373195  0.56975942     0.83200
O1265       O  0.16804834  0.70841042  0.66262663    -0.78000
C1266       C  0.06884353  0.65595399  0.62541368     0.84000
O1267       O  0.19371414  0.67868223  0.63212578    -0.78100
C1268       C  0.10802129  0.60268126  0.57131892     0.84100
C1269       C  0.10247651  0.60122271  0.68145241     0.84400
O1270       O  0.11682408  0.60080291  0.66163949    -0.80500
O1271       O  0.48762479  0.12505095  0.83548659    -0.78000
C1272       C  0.47939865  0.11690806  0.92913622     0.83000
O1273       O  0.56638876  0.13341337  0.87336135    -0.79100
O1274       O  0.50677247  0.05983785  0.93350461    -0.80600
O1275       O  0.44960179  0.03645996  0.85210899    -0.80400
O1276       O  0.47662671  0.08916750  0.81106834    -0.79000
Zn1277     Zn  0.50458445  0.12216150  0.87122062     1.55700
O1278       O  0.44950611  0.03867840  0.89958910    -0.80400
Cd1279     Cd  0.48446880  0.06780133  0.83981638     1.59700
Cd1280     Cd  0.53891461  0.09444750  0.87443641     1.59600
O1281       O  0.50620575  0.05451346  0.81911438    -0.80400
O1282       O  0.50318059  0.08916854  0.87372697    -1.90900
Cd1283     Cd  0.48474923  0.07091645  0.90941043     1.59900
O1284       O  0.54453312  0.07516759  0.84092774    -0.80400
O1285       O  0.47745693  0.09511042  0.93430169    -0.79000
C1286       C  0.56379485  0.15319641  0.87124278     0.83500
C1287       C  0.47860102  0.11129018  0.81314223     0.83200
O1288       O  0.48840421  0.12855743  0.90559115    -0.78000
C1289       C  0.43861324  0.02794202  0.87613585     0.84000
O1290       O  0.54151302  0.15106743  0.87006983    -0.78100
C1291       C  0.52949814  0.05953569  0.82200699     0.84100
C1292       C  0.53040283  0.06564564  0.93161741     0.84400
O1293       O  0.54475311  0.07910871  0.91106734    -0.80500
O1294       O  0.65102115  0.93072555  0.58651410    -0.78000
C1295       C  0.66194182  0.94312225  0.67929292     0.83000
O1296       O  0.57157611  0.92025471  0.62161435    -0.79100
O1297       O  0.62878863  0.99468977  0.68289032    -0.80600
O1298       O  0.68744893  0.02035464  0.60041962    -0.80400
O1299       O  0.66201647  0.96601056  0.56091155    -0.79000
Zn1300     Zn  0.63422571  0.93399110  0.62223749     1.55700
O1301       O  0.68650048  0.02035179  0.64798023    -0.80400
Cd1302     Cd  0.65296282  0.98755807  0.58869325     1.59700
Cd1303     Cd  0.59808042  0.95953319  0.62384566     1.59600
O1304       O  0.62976903  0.99914065  0.56767372    -0.80400
O1305       O  0.63456927  0.96658585  0.62321871    -1.90900
Cd1306     Cd  0.65272820  0.98642579  0.65835056     1.59900
O1307       O  0.59184934  0.97804365  0.59036237    -0.80400
O1308       O  0.66312017  0.96471717  0.68346265    -0.79000
C1309       C  0.57500209  0.90089500  0.62125658     0.83500
C1310       C  0.66055538  0.94414355  0.56405011     0.83200
O1311       O  0.65216391  0.93005242  0.65665802    -0.78000
C1312       C  0.69767217  0.03038947  0.62438760     0.84000
O1313       O  0.59763918  0.90388434  0.62193602    -0.78100
C1314       C  0.60630277  0.99356634  0.57105792     0.84100
C1315       C  0.60479597  0.98757599  0.68131981     0.84400
O1316       O  0.59076004  0.97397464  0.66061827    -0.80500
C1317       C  0.73222651  0.38072114  0.88518242     0.03600
C1318       C  0.75766211  0.38526887  0.88526777    -0.12500
C1319       C  0.76234511  0.36458057  0.88466788     0.01100
C1320       C  0.74149742  0.33920172  0.88337760    -0.11100
C1321       C  0.71600170  0.33442271  0.88249723     0.03600
C1322       C  0.71144649  0.35524027  0.88378336    -0.10500
H1323       H  0.77381491  0.40490240  0.88588689     0.09200
H1324       H  0.74515345  0.32323285  0.88241439     0.06700
H1325       H  0.69177043  0.35163445  0.88319974     0.06600
C1326       C  0.40689315  0.67314818  0.63310095     0.03600
C1327       C  0.38165504  0.66859334  0.63709065    -0.12500
C1328       C  0.37705333  0.68926426  0.64008117     0.01100
C1329       C  0.39799689  0.71467259  0.63893119    -0.11100
C1330       C  0.42332442  0.71946779  0.63528803     0.03600
C1331       C  0.42770175  0.69864048  0.63247375    -0.10500
H1332       H  0.36553384  0.64893307  0.63731839     0.09200
H1333       H  0.39458265  0.73075845  0.64074100     0.06700
H1334       H  0.44722288  0.70229268  0.62925197     0.06600
O1335       O  0.39346598  0.44600962  0.58308207    -0.78000
C1336       C  0.39355969  0.43717823  0.67620826     0.83000
O1337       O  0.46085824  0.52664881  0.62185293    -0.79100
O1338       O  0.47985248  0.46914032  0.67957116    -0.80600
O1339       O  0.44820016  0.41262499  0.59909148    -0.80400
O1340       O  0.41899056  0.43591238  0.55860967    -0.79000
Zn1341     Zn  0.41269408  0.46378316  0.61881836     1.55700
O1342       O  0.44506731  0.41217927  0.64647011    -0.80400
Cd1343     Cd  0.44921921  0.44635783  0.58707301     1.59700
Cd1344     Cd  0.47458587  0.50094346  0.62222770     1.59600
O1345       O  0.48388564  0.47005553  0.56644767    -0.80400
O1346       O  0.44538962  0.46441151  0.62101750    -1.90900
Cd1347     Cd  0.44641176  0.44640496  0.65631190     1.59900
O1348       O  0.49910451  0.50830640  0.58788338    -0.80400
O1349       O  0.41445115  0.43708145  0.68135944    -0.79000
C1350       C  0.43787700  0.52270900  0.61969012     0.83500
C1351       C  0.39802735  0.43647424  0.56109341     0.83200
O1352       O  0.39016729  0.44582224  0.65282805    -0.78000
C1353       C  0.44586148  0.40174060  0.62311110     0.84000
O1354       O  0.41837810  0.49995437  0.61830499    -0.78100
C1355       C  0.50085456  0.49388923  0.56906087     0.84100
C1356       C  0.49736505  0.49285748  0.67777323     0.84400
O1357       O  0.49736778  0.50748194  0.65805259    -0.80500
O1358       O  0.75465662  0.61072263  0.83863566    -0.78000
C1359       C  0.74928326  0.62203648  0.93113101     0.83000
O1360       O  0.68333557  0.53130576  0.87556368    -0.79100
O1361       O  0.66468599  0.59118828  0.92864116    -0.80600
O1362       O  0.69768481  0.64474032  0.84499434    -0.80400
O1363       O  0.73052020  0.62056146  0.81092041    -0.79000
Zn1364     Zn  0.73282688  0.59393913  0.87369880     1.55700
O1365       O  0.69852788  0.64679928  0.89244347    -0.80400
Cd1366     Cd  0.69840785  0.61110707  0.83607848     1.59700
Cd1367     Cd  0.67053897  0.55780058  0.87284963     1.59600
O1368       O  0.66515777  0.58691591  0.81297031    -0.80400
O1369       O  0.70037114  0.59410344  0.87199582    -1.90900
Cd1370     Cd  0.69825743  0.61361686  0.90553682     1.59900
O1371       O  0.64739511  0.54998858  0.83705769    -0.80400
O1372       O  0.72911459  0.62405173  0.93294130    -0.79000
C1373       C  0.70621210  0.53475886  0.87655397     0.83500
C1374       C  0.75094756  0.61936607  0.81537503     0.83200
O1375       O  0.75315826  0.61171622  0.90929401    -0.78000
C1376       C  0.69818937  0.65617061  0.86814209     0.84000
O1377       O  0.72594791  0.55735371  0.87553843    -0.78100
C1378       C  0.64719554  0.56350095  0.81620180     0.84100
C1379       C  0.64672741  0.56766789  0.92669559     0.84400
O1380       O  0.64680275  0.55272154  0.90738650    -0.80500
C1381       C  0.58049736  0.52221747  0.78192994    -0.22000
C1382       C  0.58469659  0.53330882  0.75481934     0.10000
C1383       C  0.60940796  0.55394967  0.74764991     0.10400
C1384       C  0.62942513  0.56306119  0.76789977    -0.16900
C1385       C  0.62540475  0.55200889  0.79526842    -0.27300
C1386       C  0.60039843  0.53115622  0.80224372     0.18700
C1387       C  0.56265350  0.52303332  0.73456705     0.12700
C1388       C  0.61468441  0.56618528  0.71856077    -0.11700
H1389       H  0.64836528  0.57894363  0.76224111     0.13000
C1390       C  0.59396895  0.51866269  0.83124367    -0.22500
H1391       H  0.56134349  0.50650166  0.78725786     0.08600
C1392       C  0.55357090  0.49903787  0.72083693     0.05000
C1393       C  0.53180196  0.48945884  0.70303345    -0.19700
C1394       C  0.51898877  0.50339198  0.69842926    -0.12000
C1395       C  0.52795318  0.52734091  0.71251719     0.13700
C1396       C  0.54979259  0.53689904  0.73023021    -0.22500
C1397       C  0.56717508  0.48381068  0.72451869    -0.05500
H1398       H  0.52506583  0.47121536  0.69212971     0.15200
C1399       C  0.51448752  0.54285711  0.71044633    -0.15700
H1400       H  0.55654358  0.55509505  0.74125389     0.09500
H1401       H  0.60533483  0.50897443  0.83526402     0.07400
H1402       H  0.57318180  0.50375458  0.83317982     0.08600
H1403       H  0.59824790  0.53352082  0.84776013     0.07600
H1404       H  0.60217828  0.57469361  0.71490587     0.02500
H1405       H  0.61059046  0.55136898  0.70199256     0.03000
H1406       H  0.63515852  0.58180147  0.71624154     0.06500
H1407       H  0.55795867  0.46579130  0.71167936     0.05500
H1408       H  0.56658788  0.47837053  0.74721681    -0.00300
H1409       H  0.58764979  0.49564765  0.71759190     0.01200
H1410       H  0.50948123  0.54630925  0.73218509     0.04800
H1411       H  0.49622033  0.53307483  0.69817966     0.06800
H1412       H  0.52762935  0.56176762  0.70031032     0.07600
C1413       C  0.57982306  0.53157890  0.96072984    -0.22000
C1414       C  0.58586126  0.53876032  0.98930288     0.10000
C1415       C  0.61175319  0.55565286  0.99731181     0.10400
C1416       C  0.63119197  0.56496436  0.97638658    -0.16900
C1417       C  0.62531694  0.55743979  0.94772306    -0.27300
C1418       C  0.59919430  0.54071119  0.93977496     0.18700
C1419       C  0.56463745  0.52802568  0.51045116     0.12700
C1420       C  0.61879180  0.56375780  0.52790591    -0.11700
H1421       H  0.65113501  0.57786754  0.98250499     0.13000
C1422       C  0.59140167  0.53315373  0.90919494    -0.22500
H1423       H  0.55979463  0.51874302  0.95485229     0.08600
C1424       C  0.54970454  0.53977534  0.51585007     0.05000
C1425       C  0.52923820  0.52836274  0.53546901    -0.19700
C1426       C  0.52325875  0.50534599  0.54954523    -0.12000
C1427       C  0.53872106  0.49393551  0.54457132     0.13700
C1428       C  0.55904058  0.50532647  0.52480211    -0.22500
C1429       C  0.55529067  0.56420934  0.00074202    -0.05500
H1430       H  0.51751911  0.53717729  0.53945214     0.15200
C1431       C  0.53516590  0.47044135  0.56034811    -0.15700
H1432       H  0.57080046  0.49656611  0.52071574     0.09500
H1433       H  0.57005394  0.52140313  0.90676173     0.07400
H1434       H  0.59967320  0.52141419  0.90114631     0.08600
H1435       H  0.59835838  0.55078539  0.89597808     0.07600
H1436       H  0.61315515  0.54650201  0.54137039     0.02500
H1437       H  0.60850387  0.57373975  0.53552889     0.03000
H1438       H  0.63990844  0.57713386  0.53051477     0.06500
H1439       H  0.54180512  0.57089455  0.00748673     0.05500
H1440       H  0.55322964  0.56083406  0.97738097    -0.00300
H1441       H  0.57532881  0.57976224  0.00554889     0.01200
H1442       H  0.52984585  0.45440342  0.54503409     0.04800
H1443       H  0.52022748  0.46372543  0.57722991     0.06800
H1444       H  0.55362530  0.47505936  0.57090446     0.07600
C1445       C  0.44479292  0.58901730  0.60823520    -0.22000
C1446       C  0.42385514  0.58647317  0.62427311     0.10000
C1447       C  0.40703146  0.56278405  0.63764598     0.10400
C1448       C  0.41202623  0.54232802  0.63540071    -0.16900
C1449       C  0.43331950  0.54487678  0.61980890    -0.27300
C1450       C  0.44952267  0.56841117  0.60533244     0.18700
C1451       C  0.41982791  0.60886701  0.62660615     0.12700
C1452       C  0.38385715  0.55914953  0.65429612    -0.11700
H1453       H  0.39940389  0.52431987  0.64626454     0.13000
C1454       C  0.47116240  0.57234693  0.58560623    -0.22500
H1455       H  0.45731091  0.60713879  0.59749850     0.08600
C1456       C  0.43113615  0.62704122  0.64882487     0.05000
C1457       C  0.42680525  0.64797893  0.65018820    -0.19700
C1458       C  0.41152553  0.65119930  0.62974276    -0.12000
C1459       C  0.40069033  0.63322840  0.60706277     0.13700
C1460       C  0.40478428  0.61213624  0.60599942    -0.22500
C1461       C  0.44775372  0.62428873  0.67104344    -0.05500
H1462       H  0.43515690  0.66179185  0.66746417     0.15200
C1463       C  0.38544760  0.63604298  0.58315919    -0.15700
H1464       H  0.39643654  0.59827664  0.58875715     0.09500
H1465       H  0.48997530  0.58736609  0.59452087     0.07400
H1466       H  0.46834917  0.57896123  0.56450772     0.08600
H1467       H  0.47201123  0.55459674  0.58163609     0.07600
H1468       H  0.37080364  0.56222301  0.64009916     0.02500
H1469       H  0.39019159  0.57320725  0.67212478     0.03000
H1470       H  0.37267536  0.53941569  0.66341116     0.06500
H1471       H  0.45513104  0.64018096  0.68692199     0.05500
H1472       H  0.46462817  0.62464134  0.66065212    -0.00300
H1473       H  0.43635244  0.60574016  0.68257796     0.01200
H1474       H  0.39460330  0.63631908  0.56245066     0.04800
H1475       H  0.38462823  0.65407119  0.58439900     0.06800
H1476       H  0.36536439  0.61938856  0.58337091     0.07600
C1477       C  0.70991356  0.42820992  0.90499471    -0.22000
C1478       C  0.71915633  0.44505901  0.88165058     0.10000
C1479       C  0.73280781  0.44085147  0.85974256     0.10400
C1480       C  0.73677300  0.41971676  0.86157756    -0.16900
C1481       C  0.72751429  0.40275317  0.88489184    -0.27300
C1482       C  0.71409400  0.40719700  0.90705748     0.18700
C1483       C  0.71516245  0.46755939  0.88098205     0.12700
C1484       C  0.74318040  0.45869459  0.83446444    -0.11700
H1485       H  0.74707465  0.41630829  0.84465560     0.13000
C1486       C  0.70470813  0.39082161  0.93357268    -0.22500
H1487       H  0.69972983  0.43174315  0.92195339     0.08600
C1488       C  0.69274075  0.46587713  0.86906758     0.05000
C1489       C  0.69030592  0.48800899  0.86811850    -0.19700
C1490       C  0.70987428  0.51193607  0.87868903    -0.12000
C1491       C  0.73221614  0.51331922  0.89118788     0.13700
C1492       C  0.73446884  0.49108733  0.89211479    -0.22500
C1493       C  0.67150179  0.44073643  0.85720700    -0.05500
H1494       H  0.67313368  0.48665064  0.85865504     0.15200
C1495       C  0.75357373  0.53780561  0.90427448    -0.15700
H1496       H  0.75152712  0.49204366  0.90141881     0.09500
H1497       H  0.68331266  0.38142941  0.93494531     0.07400
H1498       H  0.71334501  0.40325566  0.95261755     0.08600
H1499       H  0.71005559  0.37561789  0.93430036     0.07600
H1500       H  0.75715760  0.47856415  0.84174949     0.02500
H1501       H  0.72702777  0.45886911  0.82302450     0.03000
H1502       H  0.75329787  0.45257644  0.81920188     0.06500
H1503       H  0.65528041  0.44270383  0.84859162     0.05500
H1504       H  0.66372233  0.42590689  0.87427733    -0.00300
H1505       H  0.67922880  0.43405901  0.83969534     0.01200
H1506       H  0.76844710  0.53465792  0.91467722     0.04800
H1507       H  0.74545163  0.54503317  0.92079232     0.06800
H1508       H  0.76356254  0.55269066  0.88757629     0.07600
C1509       C  0.48519761  0.78301020  0.64988977    -0.22000
C1510       C  0.48606871  0.79752774  0.62608297     0.10000
C1511       C  0.46631335  0.78642701  0.60542377     0.10400
C1512       C  0.44593186  0.76098458  0.60919847    -0.16900
C1513       C  0.44506072  0.74635671  0.63299057    -0.27300
C1514       C  0.46487629  0.75758484  0.65372506     0.18700
C1515       C  0.50803931  0.82428160  0.62331859     0.12700
C1516       C  0.46691162  0.80134631  0.57934461    -0.11700
H1517       H  0.43072863  0.75230555  0.59334254     0.13000
C1518       C  0.46492547  0.74364752  0.68042861    -0.22500
H1519       H  0.50041422  0.79169395  0.66573947     0.08600
C1520       C  0.50711742  0.84537543  0.63533073     0.05000
C1521       C  0.52903317  0.87016514  0.63370486    -0.19700
C1522       C  0.55208070  0.87434210  0.62075522    -0.12000
C1523       C  0.55266216  0.85307476  0.60810166     0.13700
C1524       C  0.53057911  0.82835951  0.60956016    -0.22500
C1525       C  0.48314376  0.84161059  0.65029958    -0.05500
H1526       H  0.52835639  0.88626471  0.64333750     0.15200
C1527       C  0.57614519  0.85612784  0.59254140    -0.15700
H1528       H  0.53096303  0.81197687  0.60027695     0.09500
H1529       H  0.46532948  0.75497463  0.69937044     0.07400
H1530       H  0.48242549  0.74167133  0.68068290     0.08600
H1531       H  0.44766673  0.72414820  0.68242814     0.07600
H1532       H  0.48478429  0.80692021  0.56691961     0.02500
H1533       H  0.46663940  0.81904541  0.58572488     0.03000
H1534       H  0.45000658  0.78976829  0.56528240     0.06500
H1535       H  0.48566592  0.86011221  0.65857492     0.05500
H1536       H  0.47857512  0.82824622  0.66857643    -0.00300
H1537       H  0.46655075  0.83332268  0.63530699     0.01200
H1538       H  0.57231860  0.83780911  0.58231452     0.04800
H1539       H  0.59240426  0.86186898  0.60764748     0.06800
H1540       H  0.58189169  0.87089346  0.57553157     0.07600
C1541       C  0.65611678  0.27379693  0.85603162    -0.22000
C1542       C  0.65224971  0.25651029  0.87809632     0.10000
C1543       C  0.66964309  0.26457384  0.90120329     0.10400
C1544       C  0.69040324  0.29008672  0.90196669    -0.16900
C1545       C  0.69414597  0.30760245  0.88006030    -0.27300
C1546       C  0.67703281  0.29917383  0.85648538     0.18700
C1547       C  0.62966733  0.23008213  0.87654173     0.12700
C1548       C  0.66613491  0.24628365  0.92504740    -0.11700
H1549       H  0.70364615  0.29651352  0.91987281     0.13000
C1550       C  0.68060049  0.31599550  0.83103035    -0.22500
H1551       H  0.64281570  0.26732980  0.83816531     0.08600
C1552       C  0.60523341  0.22453811  0.88669343     0.05000
C1553       C  0.58422581  0.19934729  0.88428279    -0.19700
C1554       C  0.58689287  0.17952517  0.87150984    -0.12000
C1555       C  0.61140118  0.18548976  0.86035088     0.13700
C1556       C  0.63255556  0.21058834  0.86366477    -0.22500
C1557       C  0.60139331  0.24521827  0.90016487    -0.05500
H1558       H  0.56561288  0.19507508  0.89279400     0.15200
C1559       C  0.61602003  0.16668253  0.84356250    -0.15700
H1560       H  0.65135318  0.21522917  0.85535471     0.09500
H1561       H  0.66378877  0.31901926  0.82925966     0.07400
H1562       H  0.68175720  0.30626489  0.81138538     0.08600
H1563       H  0.69850330  0.33508645  0.83198191     0.07600
H1564       H  0.66701096  0.22947527  0.91642468     0.02500
H1565       H  0.64707090  0.23936360  0.93544875     0.03000
H1566       H  0.68142306  0.25569897  0.94152096     0.06500
H1567       H  0.58104987  0.23759901  0.90709507     0.05500
H1568       H  0.60633419  0.26096919  0.88459424    -0.00300
H1569       H  0.61406169  0.25324248  0.91913745     0.01200
H1570       H  0.62587366  0.17580423  0.82320594     0.04800
H1571       H  0.59809349  0.14881755  0.83756068     0.06800
H1572       H  0.62867600  0.16163816  0.85594402     0.07600
C1573       C  0.56779321  0.02350980  0.54201725    -0.22000
C1574       C  0.57298076  0.02429308  0.51282530     0.10000
C1575       C  0.58976965  0.01580797  0.50293134     0.10400
C1576       C  0.60073014  0.00634340  0.52252097    -0.16900
C1577       C  0.59534082  0.00521276  0.55180583    -0.27300
C1578       C  0.57905171  0.01450498  0.56174671     0.18700
C1579       C  0.56137588  0.03496219  0.99306948     0.12700
C1580       C  0.59571402  0.01629587  0.97164773    -0.11700
H1581       H  0.61320986  0.99933728  0.51486254     0.13000
C1582       C  0.57394839  0.01647305  0.59290473    -0.22500
H1583       H  0.55532546  0.03059240  0.54953511     0.08600
C1584       C  0.53523329  0.02053786  0.98460678     0.05000
C1585       C  0.52548285  0.03129741  0.96509445    -0.19700
C1586       C  0.54139782  0.05600808  0.95350650    -0.12000
C1587       C  0.56752052  0.07065293  0.96262695     0.13700
C1588       C  0.57704715  0.05994815  0.98243063    -0.22500
C1589       C  0.51784906  0.99358837  0.49563175    -0.05500
H1590       H  0.50550552  0.02004482  0.95824249     0.15200
C1591       C  0.58541592  0.09775737  0.95218927    -0.15700
H1592       H  0.59700357  0.07098630  0.98943141     0.09500
H1593       H  0.55316757  0.00315340  0.59767121     0.07400
H1594       H  0.57865959  0.03651936  0.59776961     0.08600
H1595       H  0.58583429  0.01219351  0.60747579     0.07600
H1596       H  0.60546730  0.03644158  0.96363401     0.02500
H1597       H  0.57747523  0.00451642  0.95961205     0.03000
H1598       H  0.60867881  0.00837212  0.96746403     0.06500
H1599       H  0.49809817  0.98479105  0.48642119     0.05500
H1600       H  0.51610877  0.99399352  0.51915354    -0.00300
H1601       H  0.52607787  0.98117368  0.48995465     0.01200
H1602       H  0.60438260  0.10683187  0.96329749     0.04800
H1603       H  0.57658428  0.10994349  0.95614301     0.06800
H1604       H  0.58933558  0.09757934  0.92909980     0.07600
C1605       C  0.56390964  0.02552375  0.79232169    -0.22000
C1606       C  0.56001936  0.02650049  0.76302987     0.10000
C1607       C  0.54522332  0.03731288  0.75328859     0.10400
C1608       C  0.53505529  0.04744656  0.77312539    -0.16900
C1609       C  0.53944848  0.04710419  0.80248509    -0.27300
C1610       C  0.55355664  0.03537720  0.81226272     0.18700
C1611       C  0.57188666  0.01634683  0.74288271     0.12700
C1612       C  0.54054878  0.03849604  0.72193958    -0.11700
H1613       H  0.52410076  0.05621822  0.76563202     0.13000
C1614       C  0.55730247  0.03193281  0.84340849    -0.22500
H1615       H  0.57495737  0.01680338  0.79968231     0.08600
C1616       C  0.59763351  0.03179305  0.73349303     0.05000
C1617       C  0.60796740  0.02158729  0.71397545    -0.19700
C1618       C  0.59319418  0.99619279  0.70367962    -0.12000
C1619       C  0.56762286  0.98035434  0.71415652     0.13700
C1620       C  0.55721193  0.99085667  0.73322126    -0.22500
C1621       C  0.61403852  0.05917254  0.74379443    -0.05500
H1622       H  0.62754190  0.03374590  0.70620312     0.15200
C1623       C  0.55102924  0.95210492  0.70690267    -0.15700
H1624       H  0.53758825  0.97892965  0.74099891     0.09500
H1625       H  0.57822330  0.04311077  0.84870469     0.07400
H1626       H  0.55005217  0.01118677  0.84776664     0.08600
H1627       H  0.54669909  0.03798687  0.85789238     0.07600
H1628       H  0.53009193  0.01867073  0.71296490     0.02500
H1629       H  0.55932338  0.04986334  0.71068848     0.03000
H1630       H  0.52874799  0.04774303  0.71790971     0.06500
H1631       H  0.63369248  0.06868763  0.73419894     0.05500
H1632       H  0.61616149  0.05935380  0.76730802    -0.00300
H1633       H  0.60474423  0.07058461  0.73801144     0.01200
H1634       H  0.54421369  0.94070211  0.72690040     0.04800
H1635       H  0.56139599  0.94421337  0.69479883     0.06800
H1636       H  0.53391645  0.94904042  0.69447398     0.07600
C1637       C  0.26467006  0.68272121  0.65775660    -0.22000
C1638       C  0.27148014  0.66822809  0.64010898     0.10000
C1639       C  0.25269002  0.64903416  0.62223751     0.10400
C1640       C  0.22772031  0.64573051  0.62128931    -0.16900
C1641       C  0.22111540  0.66100280  0.63807111    -0.27300
C1642       C  0.23957875  0.67903747  0.65742794     0.18700
C1643       C  0.29860212  0.67394200  0.64030057     0.12700
C1644       C  0.25902740  0.63210537  0.60422080    -0.11700
H1645       H  0.21347560  0.63159029  0.60687797     0.13000
C1646       C  0.23343134  0.69405725  0.67877804    -0.22500
H1647       H  0.27905185  0.69696375  0.67199296     0.08600
C1648       C  0.31672488  0.69107400  0.62032225     0.05000
C1649       C  0.34220838  0.69587504  0.62109760    -0.19700
C1650       C  0.35018042  0.68441169  0.64179103    -0.12000
C1651       C  0.33219772  0.66813528  0.66266745     0.13700
C1652       C  0.30650389  0.66280542  0.66133426    -0.22500
C1653       C  0.30923078  0.70449544  0.59839068    -0.05500
H1654       H  0.35596916  0.70846590  0.60523289     0.15200
C1655       C  0.33950737  0.65682666  0.68717201    -0.15700
H1656       H  0.29260279  0.65018000  0.67708214     0.09500
H1657       H  0.24507097  0.71499589  0.67394183     0.07400
H1658       H  0.23845952  0.69066947  0.70050904     0.08600
H1659       H  0.21270749  0.68830942  0.67935267     0.07600
H1660       H  0.26519572  0.62122054  0.61816187     0.02500
H1661       H  0.27491297  0.64404084  0.58914281     0.03000
H1662       H  0.24205488  0.61795744  0.59161723     0.06500
H1663       H  0.32585006  0.71746255  0.58458132     0.05500
H1664       H  0.30225593  0.71634038  0.60924164    -0.00300
H1665       H  0.29361838  0.69008908  0.58452730     0.01200
H1666       H  0.33432227  0.66250480  0.70758680     0.04800
H1667       H  0.36048294  0.66364202  0.68805575     0.06800
H1668       H  0.32871526  0.63544353  0.68554406     0.07600
C1669       C  0.82623924  0.37003590  0.90594201    -0.22000
C1670       C  0.84027521  0.37909140  0.88049446     0.10000
C1671       C  0.82869091  0.38339471  0.85655945     0.10400
C1672       C  0.80326421  0.37868584  0.85868164    -0.16900
C1673       C  0.78916243  0.36956232  0.88410040    -0.27300
C1674       C  0.80077563  0.36522812  0.90809205     0.18700
C1675       C  0.86697930  0.38359036  0.87924099     0.12700
C1676       C  0.84322378  0.39306129  0.82888679    -0.11700
H1677       H  0.79421972  0.38192649  0.84036883     0.13000
C1678       C  0.78707418  0.35594242  0.93629627    -0.22500
H1679       H  0.83524942  0.36673798  0.92425413     0.08600
C1680       C  0.88814523  0.40631703  0.89014021     0.05000
C1681       C  0.91307676  0.40957986  0.88853811    -0.19700
C1682       C  0.91735942  0.39054700  0.87639457    -0.12000
C1683       C  0.89592763  0.36785075  0.86504730     0.13700
C1684       C  0.87106870  0.36474078  0.86673235    -0.22500
C1685       C  0.88438556  0.42716014  0.90326125    -0.05500
H1686       H  0.92925845  0.42698346  0.89720202     0.15200
C1687       C  0.89888055  0.34701703  0.85045315    -0.15700
H1688       H  0.85460640  0.34745279  0.85823713     0.09500
H1689       H  0.79834698  0.37027637  0.95312106     0.07400
H1690       H  0.78555445  0.33722140  0.94185623     0.08600
H1691       H  0.76730982  0.35320700  0.93625209     0.07600
H1692       H  0.84855976  0.37900288  0.82057882     0.02500
H1693       H  0.86108319  0.41194320  0.83239034     0.03000
H1694       H  0.83142257  0.39569917  0.81241823     0.06500
H1695       H  0.90300228  0.44385531  0.91043485     0.05500
H1696       H  0.87138733  0.41937686  0.92203940    -0.00300
H1697       H  0.87562238  0.43421346  0.88737574     0.01200
H1698       H  0.88033290  0.33182223  0.84116189     0.04800
H1699       H  0.90523609  0.33738571  0.86598962     0.06800
H1700       H  0.91314125  0.35549656  0.83281298     0.07600
C1701       C  0.10089033  0.55054956  0.51931344    -0.22000
C1702       C  0.07493595  0.53993169  0.51136041     0.10000
C1703       C  0.06022163  0.55038754  0.52237341     0.10400
C1704       C  0.07182105  0.57121641  0.54142662    -0.16900
C1705       C  0.09779556  0.58180548  0.54977763    -0.27300
C1706       C  0.11270708  0.57163098  0.53803926     0.18700
C1707       C  0.06371775  0.51807247  0.99109215     0.12700
C1708       C  0.03226735  0.53942745  0.51416182    -0.11700
H1709       H  0.06036542  0.57895680  0.55030942     0.13000
C1710       C  0.14125561  0.58298765  0.54355194    -0.22500
H1711       H  0.11217050  0.54262332  0.01036196     0.08600
C1712       C  0.06549000  0.52220405  0.96141008     0.05000
C1713       C  0.05488065  0.50086737  0.94300094    -0.19700
C1714       C  0.04273119  0.47552013  0.95361872    -0.12000
C1715       C  0.04042809  0.47143245  0.98346895     0.13700
C1716       C  0.05123938  0.49284252  0.00181076    -0.22500
C1717       C  0.07873850  0.54911325  0.94923658    -0.05500
H1718       H  0.05648129  0.50398355  0.92015048     0.15200
C1719       C  0.02589430  0.44499123  0.99681627    -0.15700
H1720       H  0.04965252  0.48985026  0.52468350     0.09500
H1721       H  0.15173808  0.58754942  0.52289020     0.07400
H1722       H  0.14454131  0.56873216  0.55511902     0.08600
H1723       H  0.14998867  0.60118932  0.55586147     0.07600
H1724       H  0.02095834  0.51881137  0.52050327     0.02500
H1725       H  0.03068325  0.54095307  0.49076467     0.03000
H1726       H  0.02356388  0.54987001  0.52473517     0.06500
H1727       H  0.07841543  0.54890538  0.92556757     0.05500
H1728       H  0.09924876  0.55978856  0.95623941    -0.00300
H1729       H  0.06885958  0.55953461  0.95673917     0.01200
H1730       H  0.03941245  0.44152284  0.00970657     0.04800
H1731       H  0.01625428  0.42919140  0.98108144     0.06800
H1732       H  0.01052249  0.44396175  0.51102692     0.07600
C1733       C  0.07117400  0.53376903  0.71327891    -0.22000
C1734       C  0.07056240  0.53922597  0.74215451     0.10000
C1735       C  0.07936584  0.56480498  0.75100461     0.10400
C1736       C  0.08913392  0.58460822  0.73062508    -0.16900
C1737       C  0.09061087  0.57937598  0.70170367    -0.27300
C1738       C  0.08106936  0.55349790  0.69284500     0.18700
C1739       C  0.06117581  0.51781422  0.76281155     0.12700
C1740       C  0.07866870  0.57115547  0.78194920    -0.11700
H1741       H  0.09626841  0.60435319  0.73741061     0.13000
C1742       C  0.08055015  0.54632994  0.66191700    -0.22500
H1743       H  0.06406466  0.51394916  0.70679206     0.08600
C1744       C  0.03473661  0.50275691  0.76973738     0.05000
C1745       C  0.02683728  0.48263496  0.78949255    -0.19700
C1746       C  0.04476239  0.47708099  0.80218589    -0.12000
C1747       C  0.07138525  0.49241318  0.79530180     0.13700
C1748       C  0.07915339  0.51242871  0.77542210    -0.22500
C1749       C  0.01493185  0.50787949  0.75616302    -0.05500
H1750       H  0.00649002  0.47095416  0.79483630     0.15200
C1751       C  0.09232296  0.48918234  0.80920885    -0.15700
H1752       H  0.09948664  0.52424582  0.77003824     0.09500
H1753       H  0.07055706  0.52507525  0.65889702     0.07400
H1754       H  0.10054560  0.55439844  0.65366842     0.08600
H1755       H  0.07006425  0.55378701  0.64917295     0.07600
H1756       H  0.09067485  0.56550173  0.79467437     0.02500
H1757       H  0.05844633  0.56051763  0.78992343     0.03000
H1758       H  0.08625887  0.59211623  0.78521911     0.06500
H1759       H  0.99507774  0.49429804  0.76397964     0.05500
H1760       H  0.01515405  0.50562900  0.73269182    -0.00300
H1761       H  0.01943972  0.52782693  0.76115376     0.01200
H1762       H  0.10213078  0.48369320  0.79284778     0.04800
H1763       H  0.08514568  0.47454263  0.82635088     0.06800
H1764       H  0.10683126  0.50777183  0.81902171     0.07600
C1765       C  0.14069644  0.41314196  0.89960981    -0.22000
C1766       C  0.14555739  0.40155612  0.87633692     0.10000
C1767       C  0.12733458  0.39102875  0.85410313     0.10400
C1768       C  0.10459102  0.39240212  0.85562442    -0.16900
C1769       C  0.09960128  0.40426790  0.87878593    -0.27300
C1770       C  0.11830435  0.41520338  0.90094175     0.18700
C1771       C  0.17039365  0.40162869  0.87515477     0.12700
C1772       C  0.13194848  0.37838675  0.82876417    -0.11700
H1773       H  0.09050913  0.38395861  0.83861422     0.13000
C1774       C  0.11645466  0.43043157  0.92555799    -0.22500
H1775       H  0.15500839  0.42149726  0.91643488     0.08600
C1776       C  0.19279021  0.42253199  0.86316904     0.05000
C1777       C  0.21588175  0.42177239  0.86235064    -0.19700
C1778       C  0.21711425  0.40063784  0.87336917    -0.12000
C1779       C  0.19455104  0.37957625  0.88517222     0.13700
C1780       C  0.17151421  0.38045889  0.88608534    -0.22500
C1781       C  0.19227727  0.44561988  0.85129933    -0.05500
H1782       H  0.23315185  0.43783199  0.85324656     0.15200
C1783       C  0.19379027  0.35558069  0.89619020    -0.15700
H1784       H  0.15419535  0.36437068  0.89507768     0.09500
H1785       H  0.13479231  0.44921307  0.92720285     0.07400
H1786       H  0.11352693  0.41957851  0.94569655     0.08600
H1787       H  0.10097404  0.43523734  0.92326174     0.07600
H1788       H  0.13387703  0.36178853  0.83595614     0.02500
H1789       H  0.14997779  0.39249948  0.81763954     0.03000
H1790       H  0.11577113  0.37113269  0.81323571     0.06500
H1791       H  0.21144010  0.46025219  0.84269383     0.05500
H1792       H  0.18684485  0.45487593  0.86835337    -0.00300
H1793       H  0.17792466  0.43948381  0.83376953     0.01200
H1794       H  0.18891978  0.35328450  0.91924069     0.04800
H1795       H  0.21230771  0.35582558  0.89335497     0.06800
H1796       H  0.17868215  0.33847585  0.88456803     0.07600
C1797       C  0.32323511  0.43030985  0.96023392    -0.22000
C1798       C  0.32719166  0.40975811  0.96683883     0.10000
C1799       C  0.31419500  0.38659349  0.95114838     0.10400
C1800       C  0.29825531  0.38492958  0.92830738    -0.16900
C1801       C  0.29468269  0.40572433  0.92128087    -0.27300
C1802       C  0.30719616  0.42866584  0.93761344     0.18700
C1803       C  0.34495717  0.41326061  0.99054590     0.12700
C1804       C  0.31696156  0.36366816  0.95867016    -0.11700
H1805       H  0.28865136  0.36740713  0.91570363     0.13000
C1806       C  0.30487750  0.45209335  0.93133037    -0.22500
H1807       H  0.33312918  0.44798160  0.97257682     0.08600
C1808       C  0.37157238  0.42286564  0.98584461     0.05000
C1809       C  0.38821112  0.42914470  0.50933201    -0.19700
C1810       C  0.37896495  0.42672280  0.53740582    -0.12000
C1811       C  0.35199607  0.41609639  0.54197461     0.13700
C1812       C  0.33539575  0.40944976  0.51841771    -0.22500
C1813       C  0.38256531  0.42747395  0.95609602    -0.05500
H1814       H  0.40875123  0.43711132  0.50567012     0.15200
C1815       C  0.34036782  0.41146836  0.57144863    -0.15700
H1816       H  0.31488153  0.40200625  0.52169535     0.09500
H1817       H  0.32440035  0.46890078  0.92714452     0.07400
H1818       H  0.29636651  0.45648111  0.95006615     0.08600
H1819       H  0.29268209  0.44967832  0.91254700     0.07600
H1820       H  0.31029488  0.35757533  0.98089088     0.02500
H1821       H  0.33748106  0.36872791  0.95685580     0.03000
H1822       H  0.30526731  0.34700939  0.94436681     0.06500
H1823       H  0.40382003  0.43535567  0.95625473     0.05500
H1824       H  0.37870091  0.44152216  0.94495110    -0.00300
H1825       H  0.37354108  0.40911563  0.94393782     0.01200
H1826       H  0.34679885  0.43010450  0.58248036     0.04800
H1827       H  0.34616071  0.39948004  0.58397516     0.06800
H1828       H  0.31888636  0.40114004  0.57074285     0.07600
C1829       C  0.32889087  0.40948023  0.71527523    -0.22000
C1830       C  0.33747264  0.41504387  0.74353564     0.10000
C1831       C  0.36408143  0.42652448  0.74962382     0.10400
C1832       C  0.38169688  0.43279786  0.72718578    -0.16900
C1833       C  0.37342000  0.42820538  0.69868266    -0.27300
C1834       C  0.34654293  0.41595422  0.69264501     0.18700
C1835       C  0.31863132  0.40989469  0.76662194     0.12700
C1836       C  0.37395096  0.43277838  0.77980107    -0.11700
H1837       H  0.40218473  0.44211391  0.73193993     0.13000
C1838       C  0.33622298  0.40915524  0.66265909    -0.22500
H1839       H  0.30834142  0.40044801  0.71094400     0.08600
C1840       C  0.31095212  0.42798599  0.77353824     0.05000
C1841       C  0.29594605  0.42414898  0.79802685    -0.19700
C1842       C  0.28870276  0.40274905  0.81578528    -0.12000
C1843       C  0.29530846  0.38394365  0.80795918     0.13700
C1844       C  0.31031145  0.38784542  0.78348620    -0.22500
C1845       C  0.31951176  0.45182763  0.75570637    -0.05500
H1846       H  0.29087453  0.43851800  0.80408924     0.15200
C1847       C  0.28694089  0.35963033  0.82489629    -0.15700
H1848       H  0.31615830  0.37394139  0.77792178     0.09500
H1849       H  0.34252325  0.42695413  0.64998021     0.07400
H1850       H  0.31472974  0.39806993  0.66229374     0.08600
H1851       H  0.34327179  0.39709870  0.65245038     0.07600
H1852       H  0.36557731  0.41479669  0.79262192     0.02500
H1853       H  0.36833981  0.44619486  0.78943953     0.03000
H1854       H  0.39536382  0.44209559  0.78075598     0.06500
H1855       H  0.31208925  0.46415691  0.76430514     0.05500
H1856       H  0.31217509  0.44620048  0.73361539    -0.00300
H1857       H  0.34097530  0.46344554  0.75525194     0.01200
H1858       H  0.27620545  0.34258965  0.81079937     0.04800
H1859       H  0.27396489  0.35736582  0.84291903     0.06800
H1860       H  0.30425705  0.35963055  0.83343595     0.07600
C1861       C  0.97929118  0.68959200  0.63009711    -0.22000
C1862       C  0.97854038  0.66743678  0.61919522     0.10000
C1863       C  0.95532059  0.64741590  0.60758397     0.10400
C1864       C  0.93306978  0.64963801  0.60797824    -0.16900
C1865       C  0.93351168  0.67143018  0.61968350    -0.27300
C1866       C  0.95709882  0.69198305  0.63024630     0.18700
C1867       C  0.00203147  0.66514011  0.62083818     0.12700
C1868       C  0.95403010  0.62369293  0.59486262    -0.11700
H1869       H  0.91502420  0.63397790  0.59976529     0.13000
C1870       C  0.95969354  0.71680832  0.64128046    -0.22500
H1871       H  0.99729310  0.70506782  0.63864011     0.08600
C1872       C  0.02236653  0.67742432  0.60099622     0.05000
C1873       C  0.04374415  0.67378475  0.60294423    -0.19700
C1874       C  0.04517292  0.65797319  0.62415709    -0.12000
C1875       C  0.02432989  0.64513881  0.64362509     0.13700
C1876       C  0.00334235  0.64940091  0.64202941    -0.22500
C1877       C  0.02134166  0.69410098  0.57763065    -0.05500
H1878       H  0.05957566  0.68356254  0.58794965     0.15200
C1879       C  0.02261420  0.62578989  0.66534958    -0.15700
H1880       H  0.98739047  0.63967454  0.65691017     0.09500
H1881       H  0.97493359  0.73329487  0.62898823     0.07400
H1882       H  0.96535857  0.71927381  0.66409100     0.08600
H1883       H  0.94162929  0.71757550  0.63923741     0.07600
H1884       H  0.95857397  0.61331022  0.61135713     0.02500
H1885       H  0.96821518  0.62937874  0.57716084     0.03000
H1886       H  0.93450035  0.61013835  0.58623839     0.06500
H1887       H  0.03870032  0.70200189  0.56368198     0.05500
H1888       H  0.02034792  0.71058375  0.58704471    -0.00300
H1889       H  0.00397276  0.68253856  0.56419819     0.01200
H1890       H  0.02333187  0.63335826  0.68714337     0.04800
H1891       H  0.03799617  0.62078547  0.66320720     0.06800
H1892       H  0.00395543  0.60746571  0.66270555     0.07600
C1893       C  0.83751954  0.67638762  0.71330512    -0.22000
C1894       C  0.82963165  0.65324581  0.72799830     0.10000
C1895       C  0.83880663  0.63673825  0.71921459     0.10400
C1896       C  0.85465773  0.64313659  0.69499555    -0.16900
C1897       C  0.86131554  0.66553072  0.67926015    -0.27300
C1898       C  0.85338801  0.68282462  0.68907578     0.18700
C1899       C  0.80985992  0.64541427  0.75074435     0.12700
C1900       C  0.83135925  0.61209482  0.73502777    -0.11700
H1901       H  0.86083613  0.62996419  0.68746636     0.13000
C1902       C  0.86119634  0.70806517  0.67441824    -0.22500
H1903       H  0.83063056  0.68913971  0.72029588     0.08600
C1904       C  0.81620313  0.65501488  0.77880308     0.05000
C1905       C  0.79657572  0.64609669  0.79956542    -0.19700
C1906       C  0.77079300  0.62791944  0.79275945    -0.12000
C1907       C  0.76460517  0.61813655  0.76460780     0.13700
C1908       C  0.78417735  0.62733652  0.74393709    -0.22500
C1909       C  0.84364705  0.67439877  0.78679748    -0.05500
H1910       H  0.80131764  0.65345377  0.82115552     0.15200
C1911       C  0.73798214  0.59713716  0.75573018    -0.15700
H1912       H  0.77948799  0.61983831  0.72238016     0.09500
H1913       H  0.87133555  0.72415183  0.68985334     0.07400
H1914       H  0.84368014  0.70801490  0.66649215     0.08600
H1915       H  0.87447751  0.71190849  0.65619719     0.07600
H1916       H  0.81006508  0.59908006  0.73430378     0.02500
H1917       H  0.83764901  0.61657637  0.75758475     0.03000
H1918       H  0.84054032  0.60164064  0.72558852     0.06500
H1919       H  0.84533369  0.67974120  0.80969292     0.05500
H1920       H  0.85049070  0.69222627  0.77396855    -0.00300
H1921       H  0.85635490  0.66617993  0.78263664     0.01200
H1922       H  0.73024256  0.60469456  0.73920896     0.04800
H1923       H  0.72395480  0.58930468  0.77352955     0.06800
H1924       H  0.73929486  0.58072306  0.74658923     0.07600
C1925       C  0.78508733  0.65105630  0.00154639    -0.22000
C1926       C  0.80421645  0.64414940  0.50047286     0.10000
C1927       C  0.80599574  0.63106864  0.97642151     0.10400
C1928       C  0.78821309  0.62471994  0.95407716    -0.16900
C1929       C  0.76839846  0.63097491  0.95511579    -0.27300
C1930       C  0.76713367  0.64471676  0.97930024     0.18700
C1931       C  0.82148570  0.64984972  0.52538312     0.12700
C1932       C  0.82665542  0.62374418  0.97441286    -0.11700
H1933       H  0.78963675  0.61434599  0.93588875     0.13000
C1934       C  0.74713599  0.65288735  0.98226260    -0.22500
H1935       H  0.78400705  0.66116079  0.52021026     0.08600
C1936       C  0.84364269  0.67434715  0.52944635     0.05000
C1937       C  0.85914809  0.67874906  0.55365491    -0.19700
C1938       C  0.85286870  0.65918594  0.57382126    -0.12000
C1939       C  0.83089896  0.63447799  0.56939248     0.13700
C1940       C  0.81537848  0.63023425  0.54533659    -0.22500
C1941       C  0.85088509  0.69572063  0.00819150    -0.05500
H1942       H  0.87607980  0.69758543  0.55705420     0.15200
C1943       C  0.82353183  0.61199649  0.58917305    -0.15700
H1944       H  0.79844276  0.61137820  0.54197084     0.09500
H1945       H  0.74991466  0.66419745  0.00204491     0.07400
H1946       H  0.72746202  0.63563607  0.98332188     0.08600
H1947       H  0.74855853  0.66528613  0.96398253     0.07600
H1948       H  0.82441606  0.61050882  0.49212668     0.02500
H1949       H  0.84605895  0.64135975  0.97577993     0.03000
H1950       H  0.82555586  0.61382108  0.95401206     0.06500
H1951       H  0.86889618  0.71360072  0.01444433     0.05500
H1952       H  0.83509710  0.70030576  0.00662312    -0.00300
H1953       H  0.85405550  0.68958634  0.98695161     0.01200
H1954       H  0.80414212  0.60562224  0.59845753     0.04800
H1955       H  0.83741404  0.61652881  0.60686638     0.06800
H1956       H  0.82274519  0.59572357  0.57697367     0.07600
C1957       C  0.67074390  0.75021026  0.85762871    -0.22000
C1958       C  0.69248439  0.74997294  0.86839423     0.10000
C1959       C  0.71281661  0.77261147  0.88069173     0.10400
C1960       C  0.71098330  0.79506612  0.88185338    -0.16900
C1961       C  0.68930976  0.79540130  0.87094132    -0.27300
C1962       C  0.66878015  0.77258211  0.85892161     0.18700
C1963       C  0.69317237  0.72555643  0.86768985     0.12700
C1964       C  0.73633023  0.77297200  0.89277050    -0.11700
H1965       H  0.72667825  0.81257040  0.89099772     0.13000
C1966       C  0.64429164  0.77091934  0.84794600    -0.22500
H1967       H  0.65503150  0.73269236  0.84851223     0.08600
C1968       C  0.68011733  0.70623850  0.88839955     0.05000
C1969       C  0.68231497  0.68400553  0.88788009    -0.19700
C1970       C  0.69736187  0.68053985  0.86718892    -0.12000
C1971       C  0.71070542  0.70018665  0.84650270     0.13700
C1972       C  0.70801429  0.72219323  0.84681204    -0.22500
C1973       C  0.66411269  0.70925391  0.91127463    -0.05500
H1974       H  0.67203190  0.66910533  0.90371092     0.15200
C1975       C  0.72901660  0.69960628  0.82473723    -0.15700
H1976       H  0.71826433  0.73728939  0.83115719     0.09500
H1977       H  0.62739195  0.75533041  0.85941157     0.07400
H1978       H  0.64223071  0.76631551  0.82483626     0.08600
H1979       H  0.64377187  0.78898482  0.85104114     0.07600
H1980       H  0.74640953  0.76854505  0.87571812     0.02500
H1981       H  0.73039511  0.75832051  0.90993273     0.03000
H1982       H  0.75026133  0.79211727  0.90192491     0.06500
H1983       H  0.65546080  0.69251180  0.92605025     0.05500
H1984       H  0.64811457  0.71086021  0.90140579    -0.00300
H1985       H  0.67644518  0.72691823  0.92394847     0.01200
H1986       H  0.72110096  0.69827726  0.80300939     0.04800
H1987       H  0.73294099  0.68360718  0.82776011     0.06800
H1988       H  0.74801973  0.71771277  0.82627714     0.07600
C1989       C  0.65844056  0.87088183  0.96017494    -0.22000
C1990       C  0.68021769  0.89301701  0.97079261     0.10000
C1991       C  0.70466461  0.90144470  0.95826275     0.10400
C1992       C  0.70666814  0.88784124  0.93491177    -0.16900
C1993       C  0.68478871  0.86601163  0.92388090    -0.27300
C1994       C  0.66035639  0.85734949  0.93673529     0.18700
C1995       C  0.67674260  0.90756899  0.99435684     0.12700
C1996       C  0.72844710  0.92519913  0.96901338    -0.11700
H1997       H  0.72528131  0.89460401  0.92473506     0.13000
C1998       C  0.63581872  0.83452713  0.92571826    -0.22500
H1999       H  0.63968422  0.86448962  0.96983585     0.08600
C2000       C  0.66677957  0.92413729  0.98931184     0.05000
C2001       C  0.66285406  0.93675069  0.51237689    -0.19700
C2002       C  0.66875813  0.93330093  0.54043695    -0.12000
C2003       C  0.68020853  0.91781572  0.54517899     0.13700
C2004       C  0.68352204  0.90475993  0.52212990    -0.22500
C2005       C  0.66020073  0.92841131  0.95958298    -0.05500
H2006       H  0.65430097  0.94870218  0.50854749     0.15200
C2007       C  0.69005842  0.91523874  0.57386639    -0.15700
H2008       H  0.69173864  0.89247890  0.52579859     0.09500
H2009       H  0.62200168  0.84089868  0.91941255     0.07400
H2010       H  0.62688929  0.81980198  0.94279722     0.08600
H2011       H  0.63899802  0.82521262  0.90695872     0.07600
H2012       H  0.73197423  0.92243607  0.49160648     0.02500
H2013       H  0.72568949  0.94214962  0.96739962     0.03000
H2014       H  0.74592213  0.92937790  0.95650525     0.06500
H2015       H  0.65301298  0.94227680  0.95932082     0.05500
H2016       H  0.64489654  0.90988070  0.95046984    -0.00300
H2017       H  0.67771282  0.93628493  0.94589355     0.01200
H2018       H  0.67832660  0.89505188  0.58155508     0.04800
H2019       H  0.68987009  0.92849141  0.59018560     0.06800
H2020       H  0.71051901  0.92004552  0.57176326     0.07600
C2021       C  0.70784793  0.90723838  0.78831053    -0.22000
C2022       C  0.68651902  0.89424100  0.77015297     0.10000
C2023       C  0.66816438  0.86807718  0.77528053     0.10400
C2024       C  0.67096868  0.85575373  0.79927355    -0.16900
C2025       C  0.69164307  0.86907962  0.81828427    -0.27300
C2026       C  0.71079056  0.89492452  0.81222988     0.18700
C2027       C  0.68252803  0.90881610  0.74721754     0.12700
C2028       C  0.64513874  0.85350134  0.75599223    -0.11700
H2029       H  0.65635736  0.83595900  0.80391275     0.13000
C2030       C  0.73457379  0.91000809  0.83037244    -0.22500
H2031       H  0.72202577  0.92727119  0.78407644     0.08600
C2032       C  0.67033195  0.92326636  0.75299276     0.05000
C2033       C  0.66480985  0.93503872  0.73043995    -0.19700
C2034       C  0.67079124  0.93234067  0.70214471    -0.12000
C2035       C  0.68392288  0.91862012  0.69650106     0.13700
C2036       C  0.68968260  0.90705663  0.71921774    -0.22500
C2037       C  0.66244964  0.92559382  0.78288136    -0.05500
H2038       H  0.65484840  0.94559883  0.73483322     0.15200
C2039       C  0.69236561  0.91651525  0.66680630    -0.15700
H2040       H  0.69929042  0.89611100  0.71510556     0.09500
H2041       H  0.73436882  0.92686413  0.83993164     0.07400
H2042       H  0.75212302  0.91705587  0.81687301     0.08600
H2043       H  0.73615473  0.89836569  0.84773934     0.07600
H2044       H  0.65181513  0.85298183  0.73403997     0.02500
H2045       H  0.63342756  0.86316449  0.75564168     0.03000
H2046       H  0.63248779  0.83329009  0.76323408     0.06500
H2047       H  0.65280281  0.93731355  0.78361541     0.05500
H2048       H  0.67980005  0.93502219  0.79677838    -0.00300
H2049       H  0.64874499  0.90611915  0.79143317     0.01200
H2050       H  0.70388446  0.90663718  0.66672600     0.04800
H2051       H  0.70458517  0.93610214  0.65766705     0.06800
H2052       H  0.67525603  0.90516386  0.65299913     0.07600
C2053       C  0.76759698  0.08223117  0.60884647    -0.22000
C2054       C  0.77061991  0.10196537  0.62730835     0.10000
C2055       C  0.74980688  0.09796365  0.64502132     0.10400
C2056       C  0.72634380  0.07437990  0.64362795    -0.16900
C2057       C  0.72317009  0.05457955  0.62503470    -0.27300
C2058       C  0.74439351  0.05839406  0.60788501     0.18700
C2059       C  0.79580634  0.12658986  0.62789120     0.12700
C2060       C  0.75247615  0.11841334  0.66571193    -0.11700
H2061       H  0.71028492  0.07144870  0.65699373     0.13000
C2062       C  0.74399023  0.03755695  0.58943503    -0.22500
H2063       H  0.78371324  0.08526246  0.59550443     0.08600
C2064       C  0.81801294  0.12835669  0.64073347     0.05000
C2065       C  0.84133432  0.15214098  0.64075708    -0.19700
C2066       C  0.84293845  0.17418930  0.62829191    -0.12000
C2067       C  0.82047842  0.17251553  0.61607718     0.13700
C2068       C  0.79735425  0.14864864  0.61564482    -0.22500
C2069       C  0.81703758  0.10524921  0.65466871    -0.05500
H2070       H  0.85850789  0.15349404  0.65021894     0.15200
C2071       C  0.81989803  0.19556702  0.60409599    -0.15700
H2072       H  0.78023982  0.14730050  0.60600762     0.09500
H2073       H  0.76043894  0.03482297  0.59537710     0.07400
H2074       H  0.74612190  0.04345323  0.56671984     0.08600
H2075       H  0.72621663  0.01853730  0.59183385     0.07600
H2076       H  0.75635670  0.13608508  0.65400440     0.02500
H2077       H  0.76869869  0.12318562  0.68060477     0.03000
H2078       H  0.73460250  0.11187693  0.67851267     0.06500
H2079       H  0.83592387  0.11015239  0.66432493     0.05500
H2080       H  0.81208670  0.08982266  0.63864885    -0.00300
H2081       H  0.80218812  0.09781707  0.67179012     0.01200
H2082       H  0.81548277  0.19265275  0.58096239     0.04800
H2083       H  0.83829877  0.21397557  0.60706438     0.06800
H2084       H  0.80454948  0.19765038  0.61501795     0.07600
C2085       C  0.95061655  0.29044028  0.77662710    -0.22000
C2086       C  0.95645770  0.29959616  0.74862154     0.10000
C2087       C  0.97409618  0.32594794  0.74358046     0.10400
C2088       C  0.98505203  0.34277998  0.76680555    -0.16900
C2089       C  0.97842475  0.33396924  0.79501550    -0.27300
C2090       C  0.96128854  0.30724449  0.79996664     0.18700
C2091       C  0.94258677  0.28161395  0.72487326     0.12700
C2092       C  0.98096034  0.33634191  0.71366395    -0.11700
H2093       H  0.99816429  0.36313272  0.76283569     0.13000
C2094       C  0.95431862  0.29609177  0.82962116    -0.22500
H2095       H  0.93713323  0.27009367  0.78018248     0.08600
C2096       C  0.95192365  0.26658847  0.71201064     0.05000
C2097       C  0.93856644  0.25081553  0.68863186    -0.19700
C2098       C  0.91602132  0.24965570  0.67811855    -0.12000
C2099       C  0.90651922  0.26448585  0.69134536     0.13700
C2100       C  0.91987729  0.28015747  0.71467698    -0.22500
C2101       C  0.97608186  0.26749098  0.72277628    -0.05500
H2102       H  0.94590059  0.23960978  0.67823415     0.15200
C2103       C  0.88289563  0.26493792  0.68092441    -0.15700
H2104       H  0.91282811  0.29179242  0.72465640     0.09500
H2105       H  0.94245841  0.27468663  0.82923235     0.07400
H2106       H  0.94275730  0.30326781  0.84071930     0.08600
H2107       H  0.97219103  0.30145183  0.84190697     0.07600
H2108       H  0.96329106  0.33305436  0.70226941     0.02500
H2109       H  0.98964813  0.32639181  0.70204048     0.03000
H2110       H  0.99510185  0.35739234  0.71346567     0.06500
H2111       H  0.98077858  0.25462469  0.71026485     0.05500
H2112       H  0.97338061  0.26119548  0.74538227    -0.00300
H2113       H  0.99272472  0.28748478  0.72122108     0.01200
H2114       H  0.86821482  0.25822912  0.69820125     0.04800
H2115       H  0.87381596  0.25255222  0.66202780     0.06800
H2116       H  0.88834952  0.28499008  0.67503027     0.07600
C2117       C  0.94698227  0.28736756  0.97301594    -0.22000
C2118       C  0.94929938  0.29610306  0.50113238     0.10000
C2119       C  0.96398237  0.32274291  0.50706628     0.10400
C2120       C  0.97603595  0.34018470  0.98461936    -0.16900
C2121       C  0.97336065  0.33165889  0.95626595    -0.27300
C2122       C  0.95871078  0.30481094  0.95038916     0.18700
C2123       C  0.93620647  0.27716213  0.52426985     0.12700
C2124       C  0.96654439  0.33275291  0.53706936    -0.05100
H2125       H  0.98703917  0.36069487  0.98918153     0.13000
C2126       C  0.95582480  0.29429737  0.92055637    -0.22500
H2127       H  0.93574858  0.26680838  0.96879614     0.08600
C2128       C  0.91037190  0.26887460  0.53195454     0.05000
C2129       C  0.89969194  0.25309212  0.55600274    -0.19700
C2130       C  0.91435370  0.24556555  0.57252312    -0.12000
C2131       C  0.93980495  0.25278959  0.56384292     0.13700
C2132       C  0.95045094  0.26864179  0.53986877    -0.22500
C2133       C  0.89443017  0.27737577  0.51530612    -0.05500
H2134       H  0.88019463  0.24751736  0.56267821     0.15200
C2135       C  0.95619927  0.24408533  0.57924581    -0.15700
H2136       H  0.97019693  0.27483555  0.53360799     0.09500
H2137       H  0.94533257  0.27285714  0.92034799     0.07400
H2138       H  0.97521452  0.30125733  0.91095358     0.08600
H2139       H  0.94460035  0.30048102  0.90722220     0.07600
H2140       H  0.97585591  0.32462998  0.55073512     0.02500
H2141       H  0.94710230  0.32700463  0.54578750     0.03000
H2142       H  0.97850108  0.35413677  0.53795495     0.06500
H2143       H  0.87465768  0.26929836  0.52432257     0.05500
H2144       H  0.89259194  0.27073386  0.49288684    -0.00300
H2145       H  0.90391422  0.29875383  0.51566362     0.01200
H2146       H  0.96229477  0.23390987  0.56406462     0.04800
H2147       H  0.94581543  0.23057893  0.59697906     0.06800
H2148       H  0.97371664  0.26114664  0.58795516     0.07600
C2149       C  0.34112445  0.90966298  0.86741784    -0.22000
C2150       C  0.34135583  0.93176129  0.87764293     0.10000
C2151       C  0.31829541  0.92992578  0.88789628     0.10400
C2152       C  0.29540015  0.90590215  0.88766742    -0.16900
C2153       C  0.29509533  0.88374363  0.87743090    -0.27300
C2154       C  0.31831217  0.88555180  0.86744415     0.18700
C2155       C  0.36607556  0.95658476  0.87786121     0.12700
C2156       C  0.31795143  0.95322586  0.89942872    -0.11700
H2157       H  0.27759136  0.90435452  0.89547393     0.13000
C2158       C  0.31998295  0.86247442  0.85757249    -0.22500
H2159       H  0.35897741  0.91119309  0.85978105     0.08600
C2160       C  0.38492287  0.96223341  0.89900248     0.05000
C2161       C  0.40809603  0.98601236  0.89827640    -0.19700
C2162       C  0.41281137  0.00432778  0.87696264    -0.12000
C2163       C  0.39328100  0.99901134  0.85650313     0.13700
C2164       C  0.37042518  0.97494143  0.85689952    -0.22500
C2165       C  0.38052801  0.94320288  0.92234358    -0.05500
H2166       H  0.42286753  0.99008409  0.91410315     0.15200
C2167       C  0.39511198  0.01841200  0.83478125    -0.15700
H2168       H  0.35558134  0.97063648  0.84107166     0.09500
H2169       H  0.33456690  0.86078255  0.87058441     0.07400
H2170       H  0.32608854  0.86505883  0.83488689     0.08600
H2171       H  0.30146277  0.84402694  0.85960117     0.07600
H2172       H  0.32375797  0.96804508  0.88249175     0.02500
H2173       H  0.33162684  0.96147048  0.91758162     0.03000
H2174       H  0.29839820  0.94827465  0.90709446     0.06500
H2175       H  0.39705001  0.95087982  0.93744785     0.05500
H2176       H  0.37809156  0.92509076  0.91299482    -0.00300
H2177       H  0.36284952  0.93881217  0.93455228     0.01200
H2178       H  0.39596088  0.01156396  0.81302674     0.04800
H2179       H  0.41197285  0.03796644  0.83793002     0.06800
H2180       H  0.37766706  0.02043263  0.83638099     0.07600
C2181       C  0.18986592  0.78965442  0.96663183    -0.22000
C2182       C  0.20361575  0.77958350  0.98047979     0.10000
C2183       C  0.22852601  0.78608432  0.97087179     0.10400
C2184       C  0.23894244  0.80209638  0.94702841    -0.16900
C2185       C  0.22480937  0.81134926  0.93238400    -0.27300
C2186       C  0.20021160  0.80559285  0.94265584     0.18700
C2187       C  0.19089889  0.76066624  0.00361961     0.12700
C2188       C  0.24371759  0.77543736  0.98523768    -0.11700
H2189       H  0.25774924  0.80650793  0.93898369     0.13000
C2190       C  0.18448203  0.81592649  0.92890560    -0.22500
H2191       H  0.17075872  0.78463617  0.97425359     0.08600
C2192       C  0.19342083  0.76824627  0.53239306     0.05000
C2193       C  0.18228212  0.74923300  0.55358689    -0.19700
C2194       C  0.16834171  0.72288261  0.54649673    -0.12000
C2195       C  0.16561040  0.71539478  0.51746199     0.13700
C2196       C  0.17699748  0.73446847  0.99641943    -0.22500
C2197       C  0.20785868  0.79634411  0.54062621    -0.05500
H2198       H  0.18427330  0.75496325  0.57578597     0.15200
C2199       C  0.15169973  0.68742803  0.50846885    -0.15700
H2200       H  0.17540324  0.72895757  0.97416709     0.09500
H2201       H  0.18016929  0.82691698  0.94491747     0.07400
H2202       H  0.16596834  0.79961957  0.92093514     0.08600
H2203       H  0.19463785  0.82911133  0.91085052     0.07600
H2204       H  0.23281652  0.75403066  0.98409806     0.02500
H2205       H  0.24706202  0.78149271  0.00792247     0.03000
H2206       H  0.26284870  0.78242830  0.97494170     0.06500
H2207       H  0.20796056  0.79894476  0.56407692     0.05500
H2208       H  0.19852059  0.80638997  0.53063570    -0.00300
H2209       H  0.22822969  0.80546276  0.53324276     0.01200
H2210       H  0.13085304  0.67817496  0.51393179     0.04800
H2211       H  0.16038500  0.67710364  0.51926621     0.06800
H2212       H  0.15305787  0.68531231  0.98511155     0.07600
C2213       C  0.18660877  0.78778175  0.79354033    -0.22000
C2214       C  0.19940524  0.77701829  0.77891451     0.10000
C2215       C  0.22427403  0.78269925  0.78784713     0.10400
C2216       C  0.23562857  0.79874740  0.81154625    -0.16900
C2217       C  0.22257461  0.80898669  0.82666207    -0.27300
C2218       C  0.19787338  0.80371440  0.81736956     0.18700
C2219       C  0.18623420  0.75921867  0.75479245     0.12700
C2220       C  0.23846159  0.77115422  0.77296925    -0.11700
H2221       H  0.25446521  0.80269654  0.81890283     0.13000
C2222       C  0.18301541  0.81472592  0.83186064    -0.22500
H2223       H  0.16761217  0.78354145  0.78643771     0.08600
C2224       C  0.16633698  0.73356657  0.75939664     0.05000
C2225       C  0.15601643  0.71674164  0.73609812    -0.19700
C2226       C  0.16527109  0.72480866  0.70820782    -0.12000
C2227       C  0.18470527  0.75095508  0.70361201     0.13700
C2228       C  0.19477264  0.76777780  0.72701114    -0.22500
C2229       C  0.15653586  0.72370613  0.78898840    -0.05500
H2230       H  0.14114284  0.69689490  0.73991141     0.15200
C2231       C  0.19491548  0.76156358  0.67432179    -0.15700
H2232       H  0.20987903  0.78764390  0.72376193     0.09500
H2233       H  0.16452900  0.79875264  0.84036667     0.07400
H2234       H  0.17864403  0.82585817  0.81615824     0.08600
H2235       H  0.19380968  0.82794674  0.84966072     0.07600
H2236       H  0.24230132  0.77769401  0.75046580     0.02500
H2237       H  0.22659554  0.74976083  0.77355983     0.03000
H2238       H  0.25734157  0.77699323  0.78326751     0.06500
H2239       H  0.14134831  0.70297397  0.78886061     0.05500
H2240       H  0.14803450  0.73474153  0.79851333    -0.00300
H2241       H  0.17274079  0.72594052  0.80255899     0.01200
H2242       H  0.17865133  0.75800910  0.66003942     0.04800
H2243       H  0.20558033  0.75241733  0.66541708     0.06800
H2244       H  0.20861624  0.78271424  0.67482683     0.07600
C2245       C  0.43064410  0.33334723  0.60619204    -0.22000
C2246       C  0.44554095  0.32999730  0.62688083     0.10000
C2247       C  0.45975434  0.34974741  0.64678671     0.10400
C2248       C  0.45911931  0.37278341  0.64521460    -0.16900
C2249       C  0.44456742  0.37647568  0.62418778    -0.27300
C2250       C  0.42954126  0.35615058  0.60485207     0.18700
C2251       C  0.44619964  0.30570112  0.62708145     0.12700
C2252       C  0.47562210  0.34649124  0.66956668    -0.11700
H2253       H  0.47042215  0.38819112  0.66019007     0.13000
C2254       C  0.41125500  0.35710914  0.58340980    -0.22500
H2255       H  0.41945282  0.31784439  0.59125932     0.08600
C2256       C  0.42711117  0.28352527  0.64127419     0.05000
C2257       C  0.42850668  0.26085817  0.64052973    -0.19700
C2258       C  0.44857391  0.25997770  0.62592512    -0.12000
C2259       C  0.46809390  0.28251717  0.61234701     0.13700
C2260       C  0.46641962  0.30500473  0.61281778    -0.22500
C2261       C  0.40530242  0.28382317  0.65706009    -0.05500
H2262       H  0.41363533  0.24359343  0.65096350     0.15200
C2263       C  0.49131190  0.28387725  0.59790785    -0.15700
H2264       H  0.48118972  0.32226969  0.60226847     0.09500
H2265       H  0.39164464  0.34005019  0.58639751     0.07400
H2266       H  0.41802187  0.35655966  0.56150909     0.08600
H2267       H  0.40910815  0.37432236  0.58552691     0.07600
H2268       H  0.49067422  0.34336495  0.65957332     0.02500
H2269       H  0.46291348  0.32959886  0.68311016     0.03000
H2270       H  0.48545349  0.36376449  0.68352438     0.06500
H2271       H  0.39210149  0.26487083  0.66710507     0.05500
H2272       H  0.39380406  0.28839062  0.64208013    -0.00300
H2273       H  0.41325750  0.29867290  0.67411610     0.01200
H2274       H  0.49093770  0.28771904  0.57482064     0.04800
H2275       H  0.49233958  0.26604056  0.60037070     0.06800
H2276       H  0.50927015  0.29986483  0.60735658     0.07600
C2277       C  0.43256159  0.15069591  0.70780167    -0.22000
C2278       C  0.45672591  0.16129685  0.72115847     0.10000
C2279       C  0.47754300  0.18491664  0.71138444     0.10400
C2280       C  0.47382385  0.19723016  0.68799055    -0.16900
C2281       C  0.44982838  0.18631464  0.67413248    -0.27300
C2282       C  0.42880284  0.16296677  0.68438483     0.18700
C2283       C  0.46018975  0.14696977  0.74473661     0.12700
C2284       C  0.50369323  0.19692871  0.72548749    -0.11700
H2285       H  0.48986054  0.21511896  0.67999090     0.13000
C2286       C  0.40220757  0.15061030  0.67127952    -0.22500
H2287       H  0.41661313  0.13262214  0.71555003     0.08600
C2288       C  0.45427594  0.14970842  0.77313681     0.05000
C2289       C  0.45980873  0.13721853  0.79495728    -0.19700
C2290       C  0.47086093  0.12181843  0.78894746    -0.12000
C2291       C  0.47603634  0.11851639  0.76022113     0.13700
C2292       C  0.47061942  0.13119021  0.73851131    -0.22500
C2293       C  0.44257803  0.16616775  0.78037198    -0.05500
H2294       H  0.45573221  0.13970945  0.81688060     0.15200
C2295       C  0.48837293  0.10274673  0.75227236    -0.15700
H2296       H  0.47505765  0.12927445  0.71654240     0.09500
H2297       H  0.38793375  0.14855145  0.68775553     0.07400
H2298       H  0.39684685  0.13117069  0.66305512     0.08600
H2299       H  0.40082866  0.16200584  0.65348746     0.07600
H2300       H  0.51152634  0.18364415  0.72395794     0.02500
H2301       H  0.50188942  0.20075877  0.74828631     0.03000
H2302       H  0.51777573  0.21548884  0.71528098     0.06500
H2303       H  0.43926027  0.16635375  0.80364762     0.05500
H2304       H  0.42367399  0.15852599  0.76939543    -0.00300
H2305       H  0.45573401  0.18634525  0.77337161     0.01200
H2306       H  0.49222633  0.10351141  0.72902292     0.04800
H2307       H  0.47529560  0.08220489  0.75799893     0.06800
H2308       H  0.50713131  0.11025889  0.76354122     0.07600
C2309       C  0.43209201  0.15421065  0.53433644    -0.22000
C2310       C  0.45558605  0.16724306  0.51949511     0.10000
C2311       C  0.47473576  0.19214574  0.52823956     0.10400
C2312       C  0.47044473  0.20299951  0.55263092    -0.16900
C2313       C  0.44752926  0.18937827  0.56845678    -0.27300
C2314       C  0.42774976  0.16503712  0.55873579     0.18700
C2315       C  0.46069800  0.15360210  0.49643056     0.12700
C2316       C  0.49998260  0.20682670  0.51236369    -0.11700
H2317       H  0.48548916  0.22170902  0.56013175     0.13000
C2318       C  0.40198370  0.15003668  0.57357786    -0.22500
H2319       H  0.41735773  0.13517978  0.52728444     0.08600
C2320       C  0.47146160  0.13793904  0.50255273     0.05000
C2321       C  0.47685612  0.12589611  0.98014684    -0.19700
C2322       C  0.47204812  0.12939378  0.95166850    -0.12000
C2323       C  0.46092511  0.14494341  0.94562056     0.13700
C2324       C  0.45530292  0.15678343  0.96819781    -0.22500
C2325       C  0.47753780  0.13421673  0.53274840    -0.05500
H2326       H  0.48545245  0.11413109  0.98488754     0.15200
C2327       C  0.45433274  0.14869188  0.91566358    -0.15700
H2328       H  0.44691865  0.16880773  0.96385570     0.09500
H2329       H  0.39939051  0.13137043  0.58128772     0.07400
H2330       H  0.38623410  0.14612538  0.55832200     0.08600
H2331       H  0.39997562  0.16051369  0.59198405     0.07600
H2332       H  0.49619548  0.20993884  0.48998336     0.02500
H2333       H  0.51027677  0.19572658  0.51248456     0.03000
H2334       H  0.51287993  0.22598890  0.52215650     0.06500
H2335       H  0.48604066  0.12147662  0.53378004     0.05500
H2336       H  0.45954718  0.12528038  0.54569929    -0.00300
H2337       H  0.49163256  0.15314811  0.54220132     0.01200
H2338       H  0.44416159  0.15992254  0.91528121     0.04800
H2339       H  0.44143775  0.12963877  0.90565878     0.06800
H2340       H  0.47224827  0.15950553  0.90283191     0.07600
loop_ 
_geom_bond_atom_site_label_1 
_geom_bond_atom_site_label_2 
_geom_bond_distance 
_geom_bond_site_symmetry_2 
_ccdc_geom_bond_type 
C1            C2   1.404       .  A
C1            C6   1.404       .  A
C1         C1088   1.477       .  S
C2            C3   1.401       .  A
C2            H7   1.084       .  S
C3            C4   1.401       .  A
C3         C1111   1.475       .  S
C4            C5   1.401       .  A
C4            H8   1.084       .  S
C5            C6   1.400       .  A
C5         C1143   1.475       .  S
C6            H9   1.084       .  S
C10          C11   1.404       .  A
C10          C15   1.402       .  A
C10         C983   1.476       .  S
C11          C12   1.403       .  A
C11          H16   1.084       .  S
C12          C13   1.401       .  A
C12        C1047   1.477       .  S
C13          C14   1.401       .  A
C13          H17   1.084       .  S
C14          C15   1.400       .  A
C14        C1015   1.474       .  S
C15          H18   1.084       .  S
C19          C20   1.406       .  A
C19          C24   1.405       .  A
C19         C896   1.483       .  S
C20          C21   1.405       .  A
C20          H25   1.084       .  S
C21          C22   1.400       .  A
C21         C928   1.477       .  S
C22          C23   1.402       .  A
C22          H26   1.085       .  S
C23          C24   1.402       .  A
C23         C960   1.479       .  S
C24          H27   1.084       .  S
C28          C29   1.407       .  A
C28          C33   1.405       .  A
C28         C791   1.482       .  S
C29          C30   1.405       .  A
C29          H34   1.084       .  S
C30          C31   1.400       .  A
C30         C823   1.479       .  S
C31          C32   1.402       .  A
C31          H35   1.084       .  S
C32          C33   1.402       .  A
C32         C855   1.480       .  S
C33          H36   1.084       .  S
C37          C38   1.405       .  A
C37          C42   1.406       .  A
C37         C695   1.481       .  S
C38          C39   1.401       .  A
C38          H43   1.084       .  S
C39          C40   1.402       .  A
C39         C768   1.478       .  S
C40          C41   1.403       .  A
C40          H44   1.084       .  S
C41          C42   1.403       .  A
C41         C727   1.480       .  S
C42          H45   1.084       .  S
C46          C47   1.407       .  A
C46          C51   1.405       .  A
C46         C608   1.482       .  S
C47          C48   1.405       .  A
C47          H52   1.084       .  S
C48          C49   1.399       .  A
C48         C631   1.478       .  S
C49          C50   1.401       .  A
C49          H53   1.085       .  S
C50          C51   1.402       .  A
C50         C672   1.478       .  S
C51          H54   1.084       .  S
O55          C71   1.272       .  A
O55         Zn61   2.004       .  S
C56         C951   1.482       .  S
C56          O72   1.272       .  A
C56          O69   1.276   1_655  A
O57          C70   1.275       .  A
O57         Cd64   2.076   1_655  S
O58          C76   1.277       .  A
O58         Cd67   2.081       .  S
O59          C73   1.277       .  A
O59         Cd63   2.076       .  S
O60          C71   1.276   1_455  A
O60         Cd63   2.081       .  S
Zn61         O72   2.004       .  S
Zn61         O74   2.005       .  S
Zn61         O66   1.934   1_655  S
O62          C73   1.277       .  A
O62         Cd67   2.084       .  S
Cd63         O65   2.075       .  S
Cd63         O66   2.002       .  S
Cd64         O68   2.061       .  S
Cd64         O77   2.061       .  S
Cd64         O66   2.001       .  S
O65          C75   1.276       .  A
O66         Cd67   2.002       .  S
Cd67         O69   2.076       .  S
O68          C75   1.274       .  A
C70         C512   1.489       .  S
C70          O74   1.271       .  A
C71         C919   1.486       .  S
C73         C599   1.491       .  S
C75         C576   1.475       .  S
C76         C544   1.476       .  S
C76          O77   1.274       .  A
O78          C94   1.275       .  A
O78         Zn84   2.022       .  S
C79        C1056   1.490       .  S
C79          O95   1.273       .  A
C79          O92   1.275       .  A
O80          C93   1.274       .  A
O80         Cd87   2.071       .  S
O81          C99   1.276       .  A
O81         Cd90   2.075       .  S
O82          C96   1.274       .  A
O82         Cd86   2.065       .  S
O83          C94   1.272       .  A
O83         Cd86   2.055       .  S
Zn84         O95   2.015       .  S
Zn84         O97   2.016       .  S
Zn84         O89   1.941       .  S
O85          C96   1.275       .  A
O85         Cd90   2.072       .  S
Cd86         O88   2.067       .  S
Cd86         O89   1.992       .  S
Cd87         O91   2.071       .  S
Cd87        O100   2.055       .  S
Cd87         O89   1.997       .  S
O88          C98   1.274       .  A
O89         Cd90   2.000       .  S
Cd90         O92   2.069       .  S
O91          C98   1.275       .  A
C93         C471   1.478       .  S
C93          O97   1.274       .  A
C94        C1024   1.478       .  S
C96         C704   1.481       .  S
C98         C535   1.480       .  S
C99         C567   1.479       .  S
C99         O100   1.273       .  A
O101        C117   1.274       .  A
O101       Zn107   2.013       .  S
C102       C1152   1.482       .  S
C102        O118   1.273       .  A
C102        O115   1.275       .  A
O103        C116   1.274       .  A
O103       Cd110   2.073       .  S
O104        C122   1.276       .  A
O104       Cd113   2.082       .  S
O105        C119   1.275       .  A
O105       Cd109   2.066       .  S
O106        C117   1.274       .  A
O106       Cd109   2.071       .  S
Zn107       O118   2.012       .  S
Zn107       O120   2.008       .  S
Zn107       O112   1.940       .  S
O108        C119   1.276       .  A
O108       Cd113   2.072       .  S
Cd109       O111   2.073       .  S
Cd109       O112   1.996       .  S
Cd110       O114   2.074       .  S
Cd110       O123   2.061       .  S
Cd110       O112   1.996       .  S
O111        C121   1.275       .  A
O112       Cd113   2.000       .  S
Cd113       O115   2.070       .  S
O114        C121   1.276       .  A
C116        C384   1.485       .  S
C116        O120   1.274       .  A
C117       C1120   1.482       .  S
C119        C992   1.479       .  S
C121        C439   1.480       .  S
C122        C416   1.485       .  S
C122        O123   1.273       .  A
O124        C140   1.274       .  A
O124       Zn130   2.012       .  S
C125        C864   1.481       .  S
C125        O141   1.274       .  A
C125        O138   1.275       .  A
O126        C139   1.275       .  A
O126       Cd133   2.076       .  S
O127        C145   1.276       .  A
O127       Cd136   2.079       .  S
O128        C142   1.277       .  A
O128       Cd132   2.084   1_545  S
O129        C140   1.277       .  A
O129       Cd132   2.087       .  S
Zn130       O141   2.018       .  S
Zn130       O143   2.018       .  S
Zn130       O135   1.943       .  S
O131        C142   1.276       .  A
O131       Cd136   2.078   1_545  S
Cd132       O134   2.085       .  S
Cd132       O135   2.006       .  S
Cd133       O137   2.064       .  S
Cd133       O146   2.072       .  S
Cd133       O135   2.002       .  S
O134        C144   1.278       .  A
O135       Cd136   2.003       .  S
Cd136       O138   2.070       .  S
O137        C144   1.274       .  A
C139        C352   1.489       .  S
C139        O143   1.273       .  A
C140        C832   1.486       .  S
C142        C887   1.485       .  S
C144        C407   1.482   1_565  S
C145        C448   1.485       .  S
C145        O146   1.275       .  A
C147        C148   1.403       .  A
C147        C152   1.404       .  A
C147        C311   1.482       .  S
C148        C149   1.402       .  A
C148        H153   1.084       .  S
C149        C150   1.401       .  A
C149        C503   1.476       .  S
C150        C151   1.403       .  A
C150        H154   1.084       .  S
C151        C152   1.405       .  A
C151        C375   1.481       .  S
C152        H155   1.084       .  S
C156        C157   1.404       .  A
C156        C161   1.404       .  A
C156        C288   1.482       .  S
C157        C158   1.404       .  A
C157        H162   1.084       .  S
C158        C159   1.404       .  A
C158        C480   1.484       .  S
C159        C160   1.402       .  A
C159        H163   1.084       .  S
C160        C161   1.404       .  A
C160        C343   1.480       .  S
C161        H164   1.084       .  S
O165        C181   1.273       .  A
O165       Zn171   2.009       .  S
C166        C663   1.482       .  S
C166        O182   1.273       .  A
C166        O179   1.275       .  A
O167        C180   1.276       .  A
O167       Cd174   2.078       .  S
O168        C186   1.276       .  A
O168       Cd177   2.076       .  S
O169        C183   1.275       .  A
O169       Cd173   2.070       .  S
O170        C181   1.275       .  A
O170       Cd173   2.076       .  S
Zn171       O182   2.015       .  S
Zn171       O184   2.018       .  S
Zn171       O176   1.938       .  S
O172        C183   1.274       .  A
O172       Cd177   2.063       .  S
Cd173       O175   2.070       .  S
Cd173       O176   2.001       .  S
Cd174       O178   2.070       .  S
Cd174       O187   2.074       .  S
Cd174       O176   2.000       .  S
O175        C185   1.276       .  A
O176       Cd177   1.995       .  S
Cd177       O179   2.065       .  S
O178        C185   1.275       .  A
C180        C279   1.484       .  S
C180        O184   1.274       .  A
C181        C640   1.486       .  S
C183       C1079   1.477       .  S
C185        C256   1.475       .  S
C186        C224   1.480       .  S
C186        O187   1.275       .  A
O188        C204   1.275       .  A
O188       Zn194   2.025       .  S
C189        C759   1.499       .  S
C189        O205   1.276       .  A
C189        O202   1.273       .  A
O190        C203   1.277       .  A
O190       Cd197   2.084       .  S
O191        C209   1.275       .  A
O191       Cd200   2.072       .  S
O192        C206   1.276       .  A
O192       Cd196   2.079       .  S
O193        C204   1.276       .  A
O193       Cd196   2.074       .  S
Zn194       O205   2.025       .  S
Zn194       O207   2.019       .  S
Zn194       O199   1.947       .  S
O195        C206   1.276       .  A
O195       Cd200   2.074       .  S
Cd196       O198   2.082       .  S
Cd196       O199   2.004       .  S
Cd197       O201   2.075       .  S
Cd197       O210   2.072       .  S
Cd197       O199   2.003       .  S
O198        C208   1.277       .  A
O199       Cd200   2.001       .  S
Cd200       O202   2.072       .  S
O201        C208   1.275       .  A
C203        C320   1.493       .  S
C203        O207   1.273       .  A
C204        C736   1.477       .  S
C206        C800   1.486       .  S
C208        C215   1.495       .  S
C209        C247   1.482       .  S
C209        O210   1.275       .  A
C211        C212   1.399       .  A
C211        C216   1.404       .  A
C211        H221   1.084       .  S
C212        C213   1.410       .  A
C212        C217   1.485       .  S
C213        C214   1.406       .  A
C213        C218   1.506       .  S
C214        C215   1.409       .  A
C214        H219   1.084       .  S
C215        C216   1.423       .  A
C216        C220   1.507       .  S
C217        C222   1.411       .  A
C217        C226   1.402       .  A
C218        H234   1.110       .  S
C218        H235   1.110       .  S
C218        H236   1.111       .  S
C220        H231   1.110       .  S
C220        H232   1.111       .  S
C220        H233   1.108       .  S
C222        C223   1.404       .  A
C222        C227   1.507       .  S
C223        C224   1.405       .  A
C223        H228   1.084       .  S
C224        C225   1.417       .  A
C225        C226   1.405       .  A
C225        C229   1.508       .  S
C226        H230   1.084       .  S
C227        H237   1.111       .  S
C227        H238   1.110       .  S
C227        H239   1.110       .  S
C229        H240   1.111       .  S
C229        H241   1.107       .  S
C229        H242   1.110       .  S
C243        C244   1.399       .  A
C243        C248   1.403       .  A
C243        H253   1.084       .  S
C244        C245   1.410       .  A
C244       C1419   1.478       .  S
C245        C246   1.404       .  A
C245       C1420   1.506       .  S
C246        C247   1.406       .  A
C246        H251   1.084       .  S
C247        C248   1.417       .  A
C248        C252   1.506       .  S
C249        C254   1.410       .  A
C249        C258   1.400       .  A
C249       C1414   1.478   1_554  S
C250       C1415   1.506   1_554  S
C250        H266   1.110       .  S
C250        H267   1.110       .  S
C250        H268   1.111       .  S
C252        H263   1.111       .  S
C252        H264   1.109       .  S
C252        H265   1.110       .  S
C254        C255   1.403       .  A
C254       C1429   1.506       .  S
C255        C256   1.404       .  A
C255        H260   1.084       .  S
C256        C257   1.418       .  A
C257        C258   1.402       .  A
C257        C261   1.509       .  S
C258        H262   1.085       .  S
C259       C1424   1.506       .  S
C259        H269   1.111       .  S
C259        H270   1.110       .  S
C259        H271   1.110       .  S
C261        H272   1.110       .  S
C261        H273   1.106       .  S
C261        H274   1.111       .  S
C275        C276   1.400       .  A
C275        C280   1.405       .  A
C275        H285   1.085       .  S
C276        C277   1.409       .  A
C276        C281   1.481       .  S
C277        C278   1.404       .  A
C277        C282   1.507       .  S
C278        C279   1.407       .  A
C278        H283   1.084       .  S
C279        C280   1.420       .  A
C280        C284   1.508       .  S
C281        C286   1.410       .  A
C281        C290   1.401       .  A
C282        H298   1.110       .  S
C282        H299   1.110       .  S
C282        H300   1.111       .  S
C284        H295   1.110       .  S
C284        H296   1.111       .  S
C284        H297   1.106       .  S
C286        C287   1.404       .  A
C286        C291   1.506       .  S
C287        C288   1.404       .  A
C287        H292   1.084       .  S
C288        C289   1.418       .  A
C289        C290   1.404       .  A
C289        C293   1.508       .  S
C290        H294   1.085       .  S
C291        H301   1.111       .  S
C291        H302   1.110       .  S
C291        H303   1.110       .  S
C293        H304   1.110       .  S
C293        H305   1.107       .  S
C293        H306   1.110       .  S
C307        C308   1.402       .  A
C307        C312   1.405       .  A
C307        H317   1.084       .  S
C308        C309   1.411       .  A
C308        C313   1.483       .  S
C309        C310   1.403       .  A
C309        C314   1.506       .  S
C310        C311   1.404       .  A
C310        H315   1.084       .  S
C311        C312   1.417       .  A
C312        C316   1.508       .  S
C313        C318   1.409       .  A
C313        C322   1.399       .  A
C314        H330   1.110       .  S
C314        H331   1.110       .  S
C314        H332   1.111       .  S
C316        H327   1.110       .  S
C316        H328   1.111       .  S
C316        H329   1.107       .  S
C318        C319   1.406       .  A
C318        C323   1.506       .  S
C319        C320   1.409       .  A
C319        H324   1.084       .  S
C320        C321   1.423       .  A
C321        C322   1.405       .  A
C321        C325   1.509       .  S
C322        H326   1.084       .  S
C323        H333   1.111       .  S
C323        H334   1.110       .  S
C323        H335   1.110       .  S
C325        H336   1.111       .  S
C325        H337   1.111       .  S
C325        H338   1.109       .  S
C339        C340   1.401       .  A
C339        C344   1.403       .  A
C339        H349   1.085       .  S
C340        C341   1.410       .  A
C340        C345   1.482       .  S
C341        C342   1.405       .  A
C341        C346   1.506       .  S
C342        C343   1.405       .  A
C342        H347   1.084       .  S
C343        C344   1.415       .  A
C344        C348   1.507       .  S
C345        C350   1.409       .  A
C345        C354   1.399       .  A
C346        H362   1.110       .  S
C346        H363   1.110       .  S
C346        H364   1.111       .  S
C348        H359   1.111       .  S
C348        H360   1.110       .  S
C348        H361   1.107       .  S
C350        C351   1.404       .  A
C350        C355   1.507       .  S
C351        C352   1.407       .  A
C351        H356   1.084       .  S
C352        C353   1.421       .  A
C353        C354   1.405       .  A
C353        C357   1.509       .  S
C354        H358   1.084       .  S
C355        H365   1.111       .  S
C355        H366   1.110       .  S
C355        H367   1.110       .  S
C357        H368   1.111       .  S
C357        H369   1.109       .  S
C357        H370   1.110       .  S
C371        C372   1.400       .  A
C371        C376   1.402       .  A
C371        H381   1.085       .  S
C372        C373   1.410       .  A
C372        C377   1.479       .  S
C373        C374   1.404       .  A
C373        C378   1.506       .  S
C374        C375   1.405       .  A
C374        H379   1.084       .  S
C375        C376   1.417       .  A
C376        C380   1.508       .  S
C377        C382   1.407       .  A
C377        C386   1.400       .  A
C378        H394   1.110       .  S
C378        H395   1.110       .  S
C378        H396   1.111       .  S
C380        H391   1.110       .  S
C380        H392   1.111       .  S
C380        H393   1.107       .  S
C382        C383   1.401       .  A
C382        C387   1.507       .  S
C383        C384   1.408       .  A
C383        H388   1.084       .  S
C384        C385   1.421       .  A
C385        C386   1.405       .  A
C385        C389   1.509       .  S
C386        H390   1.085       .  S
C387        H397   1.111       .  S
C387        H398   1.110       .  S
C387        H399   1.110       .  S
C389        H400   1.111       .  S
C389        H401   1.105       .  S
C389        H402   1.110       .  S
C403        C404   1.400       .  A
C403        C408   1.403       .  A
C403        H413   1.085       .  S
C404        C405   1.411       .  A
C404       C1579   1.483   1_554  S
C405        C406   1.404       .  A
C405       C1580   1.507   1_554  S
C406        C407   1.405       .  A
C406        H411   1.084   1_545  S
C407        C408   1.421       .  A
C408        C412   1.510       .  S
C409        C414   1.411       .  A
C409        C418   1.400       .  A
C409       C1574   1.483       .  S
C410       C1575   1.507       .  S
C410        H426   1.110       .  S
C410        H427   1.110       .  S
C410        H428   1.111       .  S
C412        H423   1.110       .  S
C412        H424   1.111       .  S
C412        H425   1.106       .  S
C414        C415   1.405       .  A
C414       C1589   1.506   1_545  S
C415        C416   1.406       .  A
C415        H420   1.084       .  S
C416        C417   1.419       .  A
C417        C418   1.403       .  A
C417        C421   1.509       .  S
C418        H422   1.084       .  S
C419       C1584   1.506   1_565  S
C419        H429   1.111       .  S
C419        H430   1.110   1_556  S
C419        H431   1.110       .  S
C421        H432   1.111       .  S
C421        H433   1.110       .  S
C421        H434   1.109       .  S
C435        C436   1.400       .  A
C435        C440   1.404       .  A
C435        H445   1.085       .  S
C436        C437   1.410       .  A
C436        C441   1.482       .  S
C437        C438   1.404       .  A
C437        C442   1.506       .  S
C438        C439   1.405       .  A
C438        H443   1.084       .  S
C439        C440   1.419       .  A
C440        C444   1.509       .  S
C441        C446   1.409       .  A
C441        C450   1.400   1_545  A
C442        H458   1.110       .  S
C442        H459   1.110       .  S
C442        H460   1.111       .  S
C444        H455   1.110       .  S
C444        H456   1.111       .  S
C444        H457   1.106       .  S
C446        C447   1.404       .  A
C446        C451   1.506       .  S
C447        C448   1.406   1_545  A
C447        H452   1.084       .  S
C448        C449   1.421       .  A
C449        C450   1.405       .  A
C449        C453   1.509       .  S
C450        H454   1.085       .  S
C451        H461   1.111       .  S
C451        H462   1.110       .  S
C451        H463   1.110       .  S
C453        H464   1.111       .  S
C453        H465   1.106       .  S
C453        H466   1.110       .  S
C467        C468   1.399       .  A
C467        C472   1.402       .  A
C467        H477   1.085       .  S
C468        C469   1.410       .  A
C468        C473   1.479       .  S
C469        C470   1.404       .  A
C469        C474   1.507       .  S
C470        C471   1.405       .  A
C470        H475   1.084       .  S
C471        C472   1.419       .  A
C472        C476   1.509       .  S
C473        C478   1.410       .  A
C473        C482   1.401       .  A
C474        H490   1.110       .  S
C474        H491   1.109       .  S
C474        H492   1.111       .  S
C476        H487   1.110       .  S
C476        H488   1.111       .  S
C476        H489   1.107       .  S
C478        C479   1.401       .  A
C478        C483   1.507       .  S
C479        C480   1.405       .  A
C479        H484   1.084       .  S
C480        C481   1.418       .  A
C481        C482   1.404       .  A
C481        C485   1.508       .  S
C482        H486   1.085       .  S
C483        H493   1.111       .  S
C483        H494   1.110       .  S
C483        H495   1.109       .  S
C485        H496   1.111       .  S
C485        H497   1.107       .  S
C485        H498   1.110       .  S
C499        C500   1.402       .  A
C499        C504   1.403       .  A
C499        H509   1.085       .  S
C500        C501   1.411       .  A
C500        C505   1.480       .  S
C501        C502   1.403       .  A
C501        C506   1.506       .  S
C502        C503   1.403       .  A
C502        H507   1.084       .  S
C503        C504   1.414       .  A
C504        C508   1.507       .  S
C505        C510   1.409       .  A
C505        C514   1.398       .  A
C506        H522   1.110       .  S
C506        H523   1.110       .  S
C506        H524   1.111       .  S
C508        H519   1.110       .  S
C508        H520   1.110       .  S
C508        H521   1.108       .  S
C510        C511   1.404       .  A
C510        C515   1.506       .  S
C511        C512   1.408       .  A
C511        H516   1.084       .  S
C512        C513   1.422       .  A
C513        C514   1.404       .  A
C513        C517   1.509       .  S
C514        H518   1.084       .  S
C515        H525   1.111       .  S
C515        H526   1.110       .  S
C515        H527   1.110       .  S
C517        H528   1.111       .  S
C517        H529   1.110       .  S
C517        H530   1.111       .  S
C531        C532   1.400       .  A
C531        C536   1.403       .  A
C531       H1711   1.085       .  S
C532        C533   1.409       .  A
C532       C1707   1.479   1_554  S
C533        C534   1.402       .  A
C533        C538   1.507       .  S
C534        C535   1.406       .  A
C534        H539   1.084       .  S
C535        C536   1.419       .  A
C536        C540   1.508       .  S
C537        C542   1.409       .  A
C537        C546   1.401       .  A
C537       C1702   1.479       .  S
C538        H554   1.110       .  S
C538        H555   1.110   1_554  S
C538        H556   1.111       .  S
C540        H551   1.111       .  S
C540        H552   1.110       .  S
C540        H553   1.106       .  S
H541       C1701   1.085       .  S
C542        C543   1.402       .  A
C542        C547   1.507       .  S
C543        C544   1.405       .  A
C543        H548   1.084       .  S
C544        C545   1.417       .  A
C545        C546   1.403       .  A
C545        C549   1.508       .  S
C546       H1720   1.085       .  S
C547        H557   1.111       .  S
C547        H558   1.110       .  S
C547        H559   1.110       .  S
C549        H560   1.110       .  S
C549        H561   1.107       .  S
C549       H1732   1.111       .  S
H550       C1716   1.085       .  S
H562       C1719   1.111   1_554  S
C563        C564   1.398       .  A
C563        C568   1.402       .  A
C563        H573   1.084       .  S
C564        C565   1.410       .  A
C564        C569   1.476       .  S
C565        C566   1.403       .  A
C565        C570   1.506       .  S
C566        C567   1.405       .  A
C566        H571   1.084       .  S
C567        C568   1.419       .  A
C568        C572   1.509       .  S
C569        C574   1.408       .  A
C569        C578   1.400       .  A
C570        H586   1.110       .  S
C570        H587   1.110       .  S
C570        H588   1.111       .  S
C572        H583   1.111       .  S
C572        H584   1.109       .  S
C572        H585   1.111       .  S
C574        C575   1.402       .  A
C574        C579   1.506       .  S
C575        C576   1.405       .  A
C575        H580   1.084       .  S
C576        C577   1.418       .  A
C577        C578   1.402       .  A
C577        C581   1.509       .  S
C578        H582   1.085       .  S
C579        H589   1.111   1_455  S
C579        H590   1.110       .  S
C579        H591   1.110       .  S
C581        H592   1.110       .  S
C581        H593   1.106       .  S
C581        H594   1.111       .  S
C595        C596   1.400       .  A
C595        C600   1.406       .  A
C595        H605   1.085       .  S
C596        C597   1.408       .  A
C596        C601   1.483       .  S
C597        C598   1.404       .  A
C597        C602   1.507       .  S
C598        C599   1.409       .  A
C598        H603   1.084       .  S
C599        C600   1.423       .  A
C600        C604   1.509       .  S
C601        C606   1.411       .  A
C601        C610   1.401       .  A
C602        H618   1.110       .  S
C602        H619   1.110       .  S
C602        H620   1.111       .  S
C604        H615   1.111       .  S
C604        H616   1.110       .  S
C604        H617   1.104       .  S
C606        C607   1.404       .  A
C606        C611   1.506       .  S
C607        C608   1.404       .  A
C607        H612   1.084       .  S
C608        C609   1.417       .  A
C609        C610   1.405       .  A
C609        C613   1.508       .  S
C610        H614   1.084       .  S
C611        H621   1.111       .  S
C611        H622   1.110       .  S
C611        H623   1.110       .  S
C613        H624   1.110       .  S
C613        H625   1.107       .  S
C613        H626   1.110       .  S
C627        C628   1.401       .  A
C627        C632   1.401       .  A
C627        H637   1.085       .  S
C628        C629   1.410       .  A
C628        C633   1.479       .  S
C629        C630   1.405       .  A
C629        C634   1.506       .  S
C630        C631   1.406       .  A
C630        H635   1.084       .  S
C631        C632   1.415       .  A
C632        C636   1.508       .  S
C633        C638   1.410       .  A
C633       C1812   1.399       .  A
C634        H650   1.110       .  S
C634        H651   1.109       .  S
C634        H652   1.111       .  S
C636        H647   1.110       .  S
C636        H648   1.110       .  S
C636        H649   1.107       .  S
C638       C1809   1.404       .  A
C638        C643   1.507       .  S
C639        C640   1.407       .  A
C639       C1808   1.404   1_554  A
C639        H644   1.084       .  S
C640        C641   1.420       .  A
C641        C642   1.404       .  A
C641        C645   1.509       .  S
C642       C1803   1.399   1_554  A
C642        H646   1.084       .  S
C643        H653   1.111       .  S
C643        H654   1.110       .  S
C643        H655   1.109       .  S
C645        H656   1.109       .  S
C645        H657   1.110       .  S
C645        H658   1.111       .  S
C659        C660   1.401       .  A
C659        C664   1.406       .  A
C659        H669   1.084       .  S
C660        C661   1.409       .  A
C660        C665   1.478       .  S
C661        C662   1.399       .  A
C661        C666   1.507       .  S
C662        C663   1.405       .  A
C662        H667   1.084       .  S
C663        C664   1.420       .  A
C664        C668   1.508       .  S
C665        C670   1.411       .  A
C665        C674   1.400       .  A
C666        H682   1.110       .  S
C666        H683   1.110       .  S
C666        H684   1.111       .  S
C668        H679   1.109       .  S
C668        H680   1.111       .  S
C668        H681   1.111       .  S
C670        C671   1.403       .  A
C670        C675   1.507       .  S
C671        C672   1.403       .  A
C671        H676   1.084       .  S
C672        C673   1.416       .  A
C673        C674   1.401       .  A
C673        C677   1.508       .  S
C674        H678   1.085       .  S
C675        H685   1.111       .  S
C675        H686   1.110       .  S
C675        H687   1.110       .  S
C677        H688   1.110       .  S
C677        H689   1.108       .  S
C677        H690   1.110       .  S
C691        C692   1.402       .  A
C691        C696   1.404       .  A
C691        H701   1.084       .  S
C692        C693   1.410       .  A
C692        C697   1.480   1_655  S
C693        C694   1.402       .  A
C693        C698   1.507       .  S
C694        C695   1.404       .  A
C694        H699   1.084       .  S
C695        C696   1.416       .  A
C696        C700   1.507       .  S
C697        C702   1.409       .  A
C697        C706   1.400       .  A
C698        H714   1.110       .  S
C698        H715   1.110       .  S
C698        H716   1.111       .  S
C700        H711   1.111       .  S
C700        H712   1.110       .  S
C700        H713   1.108       .  S
C702        C703   1.403       .  A
C702        C707   1.506       .  S
C703        C704   1.407       .  A
C703        H708   1.084       .  S
C704        C705   1.419       .  A
C705        C706   1.402       .  A
C705        C709   1.509       .  S
C706        H710   1.085   1_455  S
C707        H717   1.111       .  S
C707        H718   1.110       .  S
C707        H719   1.110       .  S
C709        H720   1.110       .  S
C709        H721   1.105       .  S
C709        H722   1.111       .  S
C723        C724   1.402       .  A
C723        C728   1.404       .  A
C723        H733   1.085       .  S
C724        C725   1.412       .  A
C724        C729   1.482       .  S
C725        C726   1.403       .  A
C725        C730   1.507       .  S
C726        C727   1.403       .  A
C726        H731   1.084       .  S
C727        C728   1.415       .  A
C728        C732   1.507       .  S
C729        C734   1.410       .  A
C729        C738   1.400       .  A
C730        H746   1.110       .  S
C730        H747   1.110       .  S
C730        H748   1.111       .  S
C732        H743   1.111       .  S
C732        H744   1.110       .  S
C732        H745   1.108       .  S
C734        C735   1.407       .  A
C734        C739   1.505       .  S
C735        C736   1.406       .  A
C735        H740   1.084       .  S
C736        C737   1.417       .  A
C737        C738   1.401       .  A
C737        C741   1.509       .  S
C738        H742   1.085       .  S
C739        H749   1.111       .  S
C739        H750   1.110       .  S
C739        H751   1.110       .  S
C741        H752   1.110       .  S
C741        H753   1.106       .  S
C741        H754   1.111       .  S
C755        C760   1.406       .  A
C755       C1926   1.399       .  A
C755       H1935   1.084       .  S
C756       C1925   1.399       .  A
C756       C1927   1.407   1_554  A
C756        C761   1.482       .  S
C757        C758   1.403       .  A
C757       C1926   1.407       .  A
C757        C762   1.507       .  S
C758        C759   1.411       .  A
C758        H763   1.083       .  S
C759        C760   1.425       .  A
C760        C764   1.508       .  S
C761        C766   1.411       .  A
C761        C770   1.401       .  A
C762        H779   1.110       .  S
C762        H780   1.111       .  S
C762       H1948   1.110       .  S
C764        H775   1.111       .  S
C764        H776   1.110       .  S
C764        H777   1.110       .  S
H765       C1925   1.084       .  S
C766        C767   1.406       .  A
C766       C1941   1.505       .  S
C767        C768   1.403       .  A
C767        H772   1.084       .  S
C768        C769   1.416       .  A
C769        C770   1.402       .  A
C769        C773   1.508       .  S
C770        H774   1.085       .  S
C771       C1936   1.505       .  S
C771        H781   1.111       .  S
C771        H782   1.110       .  S
C771        H783   1.110       .  S
C773        H784   1.110       .  S
C773        H785   1.107       .  S
C773        H786   1.111       .  S
H778       C1932   1.110       .  S
C787        C788   1.402       .  A
C787        C792   1.404       .  A
C787        H797   1.084       .  S
C788        C789   1.412       .  A
C788        C793   1.484       .  S
C789        C790   1.405       .  A
C789        C794   1.506       .  S
C790        C791   1.403       .  A
C790        H795   1.084       .  S
C791        C792   1.417       .  A
C792        C796   1.508       .  S
C793        C798   1.409       .  A
C793        C802   1.401       .  A
C794        H810   1.110       .  S
C794        H811   1.110       .  S
C794        H812   1.111       .  S
C796        H807   1.111       .  S
C796        H808   1.110       .  S
C796        H809   1.108       .  S
C798        C799   1.403       .  A
C798        C803   1.507       .  S
C799        C800   1.407       .  A
C799        H804   1.084       .  S
C800        C801   1.422       .  A
C801        C802   1.406       .  A
C801        C805   1.509       .  S
C802        H806   1.085       .  S
C803        H813   1.111       .  S
C803        H814   1.110       .  S
C803        H815   1.110       .  S
C805        H816   1.110       .  S
C805        H817   1.105       .  S
C805        H818   1.111       .  S
C819        C820   1.402       .  A
C819        C824   1.404       .  A
C819        H829   1.085       .  S
C820        C821   1.411       .  A
C820        C825   1.485       .  S
C821        C822   1.405       .  A
C821        C826   1.506       .  S
C822        C823   1.404       .  A
C822        H827   1.084       .  S
C823        C824   1.415       .  A
C824        C828   1.508       .  S
C825        C830   1.411       .  A
C825       C2004   1.400       .  A
C826        H843   1.110       .  S
C826        H844   1.111       .  S
C826       H2012   1.110       .  S
C828        H839   1.111       .  S
C828        H840   1.110       .  S
C828        H841   1.108       .  S
C830       C2001   1.405       .  A
C830        C835   1.507       .  S
C831        C832   1.406       .  A
C831       C2000   1.405   1_554  A
C831        H836   1.084       .  S
C832        C833   1.421       .  A
C833        C834   1.405       .  A
C833        C837   1.509       .  S
C834       C1995   1.400   1_554  A
C834        H838   1.084       .  S
C835        H845   1.111       .  S
C835        H846   1.110       .  S
C835        H847   1.110       .  S
C837        H848   1.110       .  S
C837        H849   1.107       .  S
C837        H850   1.111       .  S
H842       C1996   1.110       .  S
C851        C852   1.400       .  A
C851        C856   1.403       .  A
C851        H861   1.084       .  S
C852        C853   1.411       .  A
C852        C857   1.480       .  S
C853        C854   1.403       .  A
C853        C858   1.507       .  S
C854        C855   1.404       .  A
C854        H859   1.084       .  S
C855        C856   1.417       .  A
C856        C860   1.508       .  S
C857        C862   1.410       .  A
C857        C866   1.401       .  A
C858        H874   1.110       .  S
C858        H875   1.110       .  S
C858        H876   1.111       .  S
C860        H871   1.110       .  S
C860        H872   1.110       .  S
C860        H873   1.108       .  S
C862        C863   1.401       .  A
C862        C867   1.507       .  S
C863        C864   1.405       .  A
C863        H868   1.084       .  S
C864        C865   1.418       .  A
C865        C866   1.406       .  A
C865        C869   1.508       .  S
C866        H870   1.084       .  S
C867        H877   1.111       .  S
C867        H878   1.110       .  S
C867        H879   1.110       .  S
C869        H880   1.111       .  S
C869        H881   1.111       .  S
C869        H882   1.109       .  S
C883        C884   1.402       .  A
C883        C888   1.405       .  A
C883        H893   1.084       .  S
C884        C885   1.412       .  A
C884        C889   1.487       .  S
C885        C886   1.406       .  A
C885        C890   1.507       .  S
C886        C887   1.406       .  A
C886        H891   1.084       .  S
C887        C888   1.419       .  A
C888        C892   1.509       .  S
C889        C894   1.413       .  A
C889        C898   1.402       .  A
C890        H906   1.109       .  S
C890        H907   1.110       .  S
C890        H908   1.111       .  S
C892        H903   1.111       .  S
C892        H904   1.110       .  S
C892        H905   1.106       .  S
C894        C895   1.406       .  A
C894        C899   1.506       .  S
C895        C896   1.404       .  A
C895        H900   1.084       .  S
C896        C897   1.417       .  A
C897        C898   1.403       .  A
C897        C901   1.508       .  S
C898        H902   1.084       .  S
C899        H909   1.111       .  S
C899        H910   1.110       .  S
C899        H911   1.110       .  S
C901        H912   1.110       .  S
C901        H913   1.107       .  S
C901        H914   1.111       .  S
C915        C916   1.399       .  A
C915        C920   1.405       .  A
C915        H925   1.084       .  S
C916        C917   1.410       .  A
C916        C921   1.481       .  S
C917        C918   1.403       .  A
C917        C922   1.507       .  S
C918        C919   1.406       .  A
C918        H923   1.084       .  S
C919        C920   1.421       .  A
C920        C924   1.509       .  S
C921        C926   1.410       .  A
C921        C930   1.401       .  A
C922        H938   1.110       .  S
C922        H939   1.110       .  S
C922        H940   1.111       .  S
C924        H935   1.111       .  S
C924        H936   1.109       .  S
C924        H937   1.110       .  S
C926        C927   1.406       .  A
C926        C931   1.506       .  S
C927        C928   1.404       .  A
C927        H932   1.084       .  S
C928        C929   1.415       .  A
C929        C930   1.402       .  A
C929        C933   1.508       .  S
C930        H934   1.085       .  S
C931        H941   1.111       .  S
C931        H942   1.110       .  S
C931        H943   1.110       .  S
C933        H944   1.110       .  S
C933        H945   1.107       .  S
C933        H946   1.110       .  S
C947        C952   1.405       .  A
C947       C2118   1.400       .  A
C947        H957   1.084       .  S
C948        C949   1.410       .  A
C948       C2117   1.400   1_554  A
C948        C953   1.479       .  S
C949       C2120   1.401   1_554  A
C949        C954   1.507       .  S
C950        C951   1.405       .  A
C950       C2119   1.401       .  A
C950        H955   1.084       .  S
C951        C952   1.419       .  A
C952        C956   1.508       .  S
C953        C958   1.410       .  A
C953        C962   1.400       .  A
C954        H970   1.110       .  S
C954        H971   1.110       .  S
C954        H972   1.111       .  S
C956        H967   1.111       .  S
C956        H968   1.110       .  S
C956        H969   1.109       .  S
C958        C959   1.403       .  A
C958        C963   1.506       .  S
C959        C960   1.404       .  A
C959        H964   1.084       .  S
C960        C961   1.416       .  A
C961        C962   1.402       .  A
C961        C965   1.507       .  S
C962        H966   1.084       .  S
C963        H973   1.111       .  S
C963        H974   1.110   1_554  S
C963        H975   1.110       .  S
C965        H976   1.111       .  S
C965        H977   1.108       .  S
C965        H978   1.110       .  S
C979        C980   1.401       .  A
C979        C984   1.402       .  A
C979        H989   1.084       .  S
C980        C981   1.410       .  A
C980        C985   1.479       .  S
C981        C982   1.402       .  A
C981        C986   1.506       .  S
C982        C983   1.403       .  A
C982        H987   1.084       .  S
C983        C984   1.416       .  A
C984        C988   1.508       .  S
C985        C990   1.410       .  A
C985        C994   1.400       .  A
C986       H1002   1.110       .  S
C986       H1003   1.110       .  S
C986       H1004   1.111       .  S
C988        H999   1.111       .  S
C988       H1000   1.110       .  S
C988       H1001   1.107       .  S
C990        C991   1.402       .  A
C990        C995   1.507       .  S
C991        C992   1.405   1_565  A
C991        H996   1.084       .  S
C992        C993   1.419   1_545  A
C993        C994   1.402       .  A
C993        C997   1.509   1_565  S
C994        H998   1.085       .  S
C995       H1005   1.111       .  S
C995       H1006   1.110       .  S
C995       H1007   1.110       .  S
C997       H1008   1.110       .  S
C997       H1009   1.106       .  S
C997       H1010   1.111       .  S
C1011      C1012   1.401       .  A
C1011      C1016   1.402       .  A
C1011      H1021   1.085       .  S
C1012      C1013   1.410       .  A
C1012      C1017   1.475       .  S
C1013      C1014   1.400       .  A
C1013      C1018   1.507       .  S
C1014      C1015   1.402       .  A
C1014      H1019   1.085       .  S
C1015      C1016   1.415       .  A
C1016      C1020   1.507       .  S
C1017      C1026   1.399       .  A
C1017      C2192   1.408       .  A
C1018      H1034   1.110       .  S
C1018      H1035   1.110       .  S
C1018      H1036   1.111       .  S
C1020      H1031   1.111       .  S
C1020      H1032   1.110       .  S
C1020      H1033   1.108       .  S
C1022      C1023   1.403       .  A
C1022      C2187   1.408       .  A
C1022      C1027   1.506       .  S
C1023      C1024   1.405       .  A
C1023      H1028   1.084       .  S
C1024      C1025   1.418       .  A
C1025      C2196   1.401   1_554  A
C1025      C1029   1.509       .  S
C1026      C2195   1.401       .  A
C1026      H1030   1.084       .  S
C1027      H1037   1.111       .  S
C1027      H1038   1.110       .  S
C1027      H1039   1.110       .  S
C1029      H1040   1.109       .  S
C1029      H1041   1.111       .  S
C1029      H2212   1.111   1_554  S
H1042      C2199   1.111       .  S
C1043      C1044   1.402       .  A
C1043      C1048   1.403       .  A
C1043      H1053   1.084       .  S
C1044      C1045   1.412       .  A
C1044      C1049   1.481       .  S
C1045      C1046   1.402       .  A
C1045      C1050   1.507       .  S
C1046      C1047   1.402       .  A
C1046      H1051   1.084       .  S
C1047      C1048   1.415       .  A
C1048      C1052   1.507       .  S
C1049      C1054   1.409       .  A
C1049      C1058   1.400       .  A
C1050      H1066   1.110       .  S
C1050      H1067   1.110       .  S
C1050      H1068   1.111       .  S
C1052      H1063   1.110       .  S
C1052      H1064   1.110       .  S
C1052      H1065   1.108       .  S
C1054      C1055   1.402       .  A
C1054      C1059   1.507       .  S
C1055      C1056   1.408       .  A
C1055      H1060   1.083       .  S
C1056      C1057   1.422       .  A
C1057      C1058   1.405       .  A
C1057      C1061   1.508       .  S
C1058      H1062   1.084       .  S
C1059      H1069   1.111       .  S
C1059      H1070   1.110       .  S
C1059      H1071   1.110       .  S
C1061      H1072   1.110       .  S
C1061      H1073   1.109       .  S
C1061      H1074   1.111       .  S
C1075      C1076   1.399       .  A
C1075      C1080   1.402       .  A
C1075      H1085   1.085       .  S
C1076      C1077   1.408       .  A
C1076      C1081   1.476       .  S
C1077      C1078   1.402       .  A
C1077      C1082   1.507       .  S
C1078      C1079   1.405       .  A
C1078      H1083   1.084       .  S
C1079      C1080   1.419       .  A
C1080      C1084   1.509       .  S
C1081      C1086   1.410       .  A
C1081      C1090   1.399       .  A
C1082      H1098   1.110       .  S
C1082      H1099   1.110       .  S
C1082      H1100   1.111       .  S
C1084      H1095   1.111       .  S
C1084      H1096   1.110       .  S
C1084      H1097   1.106       .  S
C1086      C1087   1.402       .  A
C1086      C1091   1.506       .  S
C1087      C1088   1.404       .  A
C1087      H1092   1.084       .  S
C1088      C1089   1.417       .  A
C1089      C1090   1.401       .  A
C1089      C1093   1.508       .  S
C1090      H1094   1.085       .  S
C1091      H1101   1.111       .  S
C1091      H1102   1.110       .  S
C1091      H1103   1.110       .  S
C1093      H1104   1.110       .  S
C1093      H1105   1.107       .  S
C1093      H1106   1.110       .  S
C1107      C1108   1.401       .  A
C1107      C1112   1.403       .  A
C1107      H1117   1.084       .  S
C1108      C1109   1.411       .  A
C1108      C1113   1.478       .  S
C1109      C1110   1.402       .  A
C1109      C1114   1.507       .  S
C1110      C1111   1.402       .  A
C1110      H1115   1.084       .  S
C1111      C1112   1.414       .  A
C1112      C1116   1.507       .  S
C1113      C1118   1.409       .  A
C1113      C1122   1.400       .  A
C1114      H1130   1.110       .  S
C1114      H1131   1.110       .  S
C1114      H1132   1.111       .  S
C1116      H1127   1.110       .  S
C1116      H1128   1.110       .  S
C1116      H1129   1.108       .  S
C1118      C1119   1.403       .  A
C1118      C1123   1.506       .  S
C1119      C1120   1.407       .  A
C1119      H1124   1.084       .  S
C1120      C1121   1.418       .  A
C1121      C1122   1.403       .  A
C1121      C1125   1.508       .  S
C1122      H1126   1.084       .  S
C1123      H1133   1.111       .  S
C1123      H1134   1.110       .  S
C1123      H1135   1.110       .  S
C1125      H1136   1.111       .  S
C1125      H1137   1.110       .  S
C1125      H1138   1.110       .  S
C1139      C1140   1.401       .  A
C1139      C1144   1.402       .  A
C1139      H1149   1.084       .  S
C1140      C1141   1.410       .  A
C1140      C1145   1.477   1_554  S
C1141      C1142   1.401       .  A
C1141      C1146   1.507       .  S
C1142      C1143   1.403       .  A
C1142      H1147   1.084       .  S
C1143      C1144   1.414       .  A
C1144      C1148   1.507       .  S
C1145      C1150   1.409   1_556  A
C1145      C2324   1.400       .  A
C1146      H1162   1.110   1_554  S
C1146      H1163   1.110       .  S
C1146      H1164   1.111       .  S
C1148      H1159   1.110       .  S
C1148      H1160   1.111       .  S
C1148      H1161   1.108       .  S
C1150      C2321   1.400   1_554  A
C1150      C1155   1.508       .  S
C1151      C1152   1.405       .  A
C1151      C2320   1.400       .  A
C1151      H1156   1.084       .  S
C1152      C1153   1.419       .  A
C1153      C1154   1.405       .  A
C1153      C1157   1.508       .  S
C1154      C2315   1.400       .  A
C1154      H1158   1.084       .  S
C1155      H1165   1.111       .  S
C1155      H1166   1.110       .  S
C1155      H1167   1.110       .  S
C1157      H1168   1.111       .  S
C1157      H1169   1.110       .  S
C1157      H1170   1.109       .  S
C1171      C1172   1.404       .  A
C1171      C1176   1.404       .  A
C1171      C2258   1.477       .  S
C1172      C1173   1.401       .  A
C1172      H1177   1.084       .  S
C1173      C1174   1.401       .  A
C1173      C2281   1.475       .  S
C1174      C1175   1.401       .  A
C1174      H1178   1.084       .  S
C1175      C1176   1.400       .  A
C1175      C2313   1.475       .  S
C1176      H1179   1.084       .  S
C1180      C1181   1.404       .  A
C1180      C1185   1.402       .  A
C1180      C2153   1.476       .  S
C1181      C1182   1.403       .  A
C1181      H1186   1.084       .  S
C1182      C1183   1.401       .  A
C1182      C2217   1.477       .  S
C1183      C1184   1.401       .  A
C1183      H1187   1.084       .  S
C1184      C1185   1.400       .  A
C1184      C2185   1.474       .  S
C1185      H1188   1.084       .  S
C1189      C1190   1.406       .  A
C1189      C1194   1.405       .  A
C1189      C2066   1.483       .  S
C1190      C1191   1.405       .  A
C1190      H1195   1.084       .  S
C1191      C1192   1.400       .  A
C1191      C2098   1.477       .  S
C1192      C1193   1.402       .  A
C1192      H1196   1.085       .  S
C1193      C1194   1.402       .  A
C1193      C2130   1.479       .  S
C1194      H1197   1.084       .  S
C1198      C1199   1.407       .  A
C1198      C1203   1.405       .  A
C1198      C1961   1.482       .  S
C1199      C1200   1.405       .  A
C1199      H1204   1.084       .  S
C1200      C1201   1.400       .  A
C1200      C1993   1.479       .  S
C1201      C1202   1.402       .  A
C1201      H1205   1.084       .  S
C1202      C1203   1.402       .  A
C1202      C2025   1.480       .  S
C1203      H1206   1.084       .  S
C1207      C1208   1.405       .  A
C1207      C1212   1.406       .  A
C1207      C1865   1.481       .  S
C1208      C1209   1.401       .  A
C1208      H1213   1.084       .  S
C1209      C1210   1.402       .  A
C1209      C1938   1.478       .  S
C1210      C1211   1.403       .  A
C1210      H1214   1.084       .  S
C1211      C1212   1.403       .  A
C1211      C1897   1.480       .  S
C1212      H1215   1.084       .  S
C1216      C1217   1.407       .  A
C1216      C1221   1.405       .  A
C1216      C1778   1.482       .  S
C1217      C1218   1.405       .  A
C1217      H1222   1.084       .  S
C1218      C1219   1.399       .  A
C1218      C1801   1.478       .  S
C1219      C1220   1.401       .  A
C1219      H1223   1.085       .  S
C1220      C1221   1.402       .  A
C1220      C1842   1.478       .  S
C1221      H1224   1.084       .  S
O1225      C1241   1.272       .  A
O1225     Zn1231   2.004       .  S
C1226      C2121   1.482       .  S
C1226      O1242   1.272       .  A
C1226      O1239   1.276   1_655  A
O1227      C1240   1.275       .  A
O1227     Cd1234   2.076   1_655  S
O1228      C1246   1.277       .  A
O1228     Cd1237   2.081       .  S
O1229      C1243   1.277       .  A
O1229     Cd1233   2.076       .  S
O1230      C1241   1.276   1_455  A
O1230     Cd1233   2.081       .  S
Zn1231     O1242   2.004       .  S
Zn1231     O1244   2.005       .  S
Zn1231     O1236   1.934   1_655  S
O1232      C1243   1.277       .  A
O1232     Cd1237   2.084       .  S
Cd1233     O1235   2.075       .  S
Cd1233     O1236   2.002       .  S
Cd1234     O1238   2.061       .  S
Cd1234     O1247   2.061       .  S
Cd1234     O1236   2.001       .  S
O1235      C1245   1.276       .  A
O1236     Cd1237   2.002       .  S
Cd1237     O1239   2.076       .  S
O1238      C1245   1.274       .  A
C1240      C1682   1.489       .  S
C1240      O1244   1.271       .  A
C1241      C2089   1.486       .  S
C1243      C1769   1.491       .  S
C1245      C1746   1.475       .  S
C1246      C1714   1.476       .  S
C1246      O1247   1.274       .  A
O1248      C1264   1.275       .  A
O1248     Zn1254   2.022       .  S
C1249      C2226   1.490       .  S
C1249      O1265   1.273       .  A
C1249      O1262   1.275       .  A
O1250      C1263   1.274       .  A
O1250     Cd1257   2.071       .  S
O1251      C1269   1.276       .  A
O1251     Cd1260   2.075       .  S
O1252      C1266   1.274       .  A
O1252     Cd1256   2.065       .  S
O1253      C1264   1.272       .  A
O1253     Cd1256   2.055       .  S
Zn1254     O1265   2.015       .  S
Zn1254     O1267   2.016       .  S
Zn1254     O1259   1.941       .  S
O1255      C1266   1.275       .  A
O1255     Cd1260   2.072       .  S
Cd1256     O1258   2.067       .  S
Cd1256     O1259   1.992       .  S
Cd1257     O1261   2.071       .  S
Cd1257     O1270   2.055       .  S
Cd1257     O1259   1.997       .  S
O1258      C1268   1.274       .  A
O1259     Cd1260   2.000       .  S
Cd1260     O1262   2.069       .  S
O1261      C1268   1.275       .  A
C1263      C1641   1.478       .  S
C1263      O1267   1.274       .  A
C1264      C2194   1.478       .  S
C1266      C1874   1.481       .  S
C1268      C1705   1.480       .  S
C1269      C1737   1.479       .  S
C1269      O1270   1.273       .  A
O1271      C1287   1.274       .  A
O1271     Zn1277   2.013       .  S
C1272      C2322   1.482       .  S
C1272      O1288   1.273       .  A
C1272      O1285   1.275       .  A
O1273      C1286   1.274       .  A
O1273     Cd1280   2.073       .  S
O1274      C1292   1.276       .  A
O1274     Cd1283   2.082       .  S
O1275      C1289   1.275       .  A
O1275     Cd1279   2.066       .  S
O1276      C1287   1.274       .  A
O1276     Cd1279   2.071       .  S
Zn1277     O1288   2.012       .  S
Zn1277     O1290   2.008       .  S
Zn1277     O1282   1.940       .  S
O1278      C1289   1.276       .  A
O1278     Cd1283   2.072       .  S
Cd1279     O1281   2.073       .  S
Cd1279     O1282   1.996       .  S
Cd1280     O1284   2.074       .  S
Cd1280     O1293   2.061       .  S
Cd1280     O1282   1.996       .  S
O1281      C1291   1.275       .  A
O1282     Cd1283   2.000       .  S
Cd1283     O1285   2.070       .  S
O1284      C1291   1.276       .  A
C1286      C1554   1.485       .  S
C1286      O1290   1.274       .  A
C1287      C2290   1.482       .  S
C1289      C2162   1.479       .  S
C1291      C1609   1.480       .  S
C1292      C1586   1.485       .  S
C1292      O1293   1.273       .  A
O1294      C1310   1.274       .  A
O1294     Zn1300   2.012       .  S
C1295      C2034   1.481       .  S
C1295      O1311   1.274       .  A
C1295      O1308   1.275       .  A
O1296      C1309   1.275       .  A
O1296     Cd1303   2.076       .  S
O1297      C1315   1.276       .  A
O1297     Cd1306   2.079       .  S
O1298      C1312   1.277       .  A
O1298     Cd1302   2.084   1_545  S
O1299      C1310   1.277       .  A
O1299     Cd1302   2.087       .  S
Zn1300     O1311   2.018       .  S
Zn1300     O1313   2.018       .  S
Zn1300     O1305   1.943       .  S
O1301      C1312   1.276       .  A
O1301     Cd1306   2.078   1_545  S
Cd1302     O1304   2.085       .  S
Cd1302     O1305   2.006       .  S
Cd1303     O1307   2.064       .  S
Cd1303     O1316   2.072       .  S
Cd1303     O1305   2.002       .  S
O1304      C1314   1.278       .  A
O1305     Cd1306   2.003       .  S
Cd1306     O1308   2.070       .  S
O1307      C1314   1.274       .  A
C1309      C1522   1.489       .  S
C1309      O1313   1.273       .  A
C1310      C2002   1.486       .  S
C1312      C2057   1.485       .  S
C1314      C1577   1.482   1_565  S
C1315      C1618   1.485       .  S
C1315      O1316   1.275       .  A
C1317      C1318   1.403       .  A
C1317      C1322   1.404       .  A
C1317      C1481   1.482       .  S
C1318      C1319   1.402       .  A
C1318      H1323   1.084       .  S
C1319      C1320   1.401       .  A
C1319      C1673   1.476       .  S
C1320      C1321   1.403       .  A
C1320      H1324   1.084       .  S
C1321      C1322   1.405       .  A
C1321      C1545   1.481       .  S
C1322      H1325   1.084       .  S
C1326      C1327   1.404       .  A
C1326      C1331   1.404       .  A
C1326      C1458   1.482       .  S
C1327      C1328   1.404       .  A
C1327      H1332   1.084       .  S
C1328      C1329   1.404       .  A
C1328      C1650   1.484       .  S
C1329      C1330   1.402       .  A
C1329      H1333   1.084       .  S
C1330      C1331   1.404       .  A
C1330      C1513   1.480       .  S
C1331      H1334   1.084       .  S
O1335      C1351   1.273       .  A
O1335     Zn1341   2.009       .  S
C1336      C1833   1.482       .  S
C1336      O1352   1.273       .  A
C1336      O1349   1.275       .  A
O1337      C1350   1.276       .  A
O1337     Cd1344   2.078       .  S
O1338      C1356   1.276       .  A
O1338     Cd1347   2.076       .  S
O1339      C1353   1.275       .  A
O1339     Cd1343   2.070       .  S
O1340      C1351   1.275       .  A
O1340     Cd1343   2.076       .  S
Zn1341     O1352   2.015       .  S
Zn1341     O1354   2.018       .  S
Zn1341     O1346   1.938       .  S
O1342      C1353   1.274       .  A
O1342     Cd1347   2.063       .  S
Cd1343     O1345   2.070       .  S
Cd1343     O1346   2.001       .  S
Cd1344     O1348   2.070       .  S
Cd1344     O1357   2.074       .  S
Cd1344     O1346   2.000       .  S
O1345      C1355   1.276       .  A
O1346     Cd1347   1.995       .  S
Cd1347     O1349   2.065       .  S
O1348      C1355   1.275       .  A
C1350      C1449   1.484       .  S
C1350      O1354   1.274       .  A
C1351      C1810   1.486       .  S
C1353      C2249   1.477       .  S
C1355      C1426   1.475       .  S
C1356      C1394   1.480       .  S
C1356      O1357   1.275       .  A
O1358      C1374   1.275       .  A
O1358     Zn1364   2.025       .  S
C1359      C1929   1.499       .  S
C1359      O1375   1.276       .  A
C1359      O1372   1.273       .  A
O1360      C1373   1.277       .  A
O1360     Cd1367   2.084       .  S
O1361      C1379   1.275       .  A
O1361     Cd1370   2.072       .  S
O1362      C1376   1.276       .  A
O1362     Cd1366   2.079       .  S
O1363      C1374   1.276       .  A
O1363     Cd1366   2.074       .  S
Zn1364     O1375   2.025       .  S
Zn1364     O1377   2.019       .  S
Zn1364     O1369   1.947       .  S
O1365      C1376   1.276       .  A
O1365     Cd1370   2.074       .  S
Cd1366     O1368   2.082       .  S
Cd1366     O1369   2.004       .  S
Cd1367     O1371   2.075       .  S
Cd1367     O1380   2.072       .  S
Cd1367     O1369   2.003       .  S
O1368      C1378   1.277       .  A
O1369     Cd1370   2.001       .  S
Cd1370     O1372   2.072       .  S
O1371      C1378   1.275       .  A
C1373      C1490   1.493       .  S
C1373      O1377   1.273       .  A
C1374      C1906   1.477       .  S
C1376      C1970   1.486       .  S
C1378      C1385   1.495       .  S
C1379      C1417   1.482       .  S
C1379      O1380   1.275       .  A
C1381      C1382   1.399       .  A
C1381      C1386   1.404       .  A
C1381      H1391   1.084       .  S
C1382      C1383   1.410       .  A
C1382      C1387   1.485       .  S
C1383      C1384   1.406       .  A
C1383      C1388   1.506       .  S
C1384      C1385   1.409       .  A
C1384      H1389   1.084       .  S
C1385      C1386   1.423       .  A
C1386      C1390   1.507       .  S
C1387      C1392   1.411       .  A
C1387      C1396   1.402       .  A
C1388      H1404   1.110       .  S
C1388      H1405   1.110       .  S
C1388      H1406   1.111       .  S
C1390      H1401   1.110       .  S
C1390      H1402   1.111       .  S
C1390      H1403   1.108       .  S
C1392      C1393   1.404       .  A
C1392      C1397   1.507       .  S
C1393      C1394   1.405       .  A
C1393      H1398   1.084       .  S
C1394      C1395   1.417       .  A
C1395      C1396   1.405       .  A
C1395      C1399   1.508       .  S
C1396      H1400   1.084       .  S
C1397      H1407   1.111       .  S
C1397      H1408   1.110       .  S
C1397      H1409   1.110       .  S
C1399      H1410   1.111       .  S
C1399      H1411   1.107       .  S
C1399      H1412   1.110       .  S
C1413      C1414   1.399       .  A
C1413      C1418   1.403       .  A
C1413      H1423   1.084       .  S
C1414      C1415   1.410       .  A
C1415      C1416   1.404       .  A
C1416      C1417   1.406       .  A
C1416      H1421   1.084       .  S
C1417      C1418   1.418       .  A
C1418      C1422   1.506       .  S
C1419      C1424   1.410       .  A
C1419      C1428   1.400       .  A
C1420      H1436   1.110       .  S
C1420      H1437   1.110       .  S
C1420      H1438   1.111       .  S
C1422      H1433   1.111       .  S
C1422      H1434   1.109       .  S
C1422      H1435   1.110       .  S
C1424      C1425   1.403       .  A
C1425      C1426   1.404       .  A
C1425      H1430   1.084       .  S
C1426      C1427   1.418       .  A
C1427      C1428   1.402       .  A
C1427      C1431   1.509       .  S
C1428      H1432   1.085       .  S
C1429      H1439   1.111       .  S
C1429      H1440   1.110   1_554  S
C1429      H1441   1.110       .  S
C1431      H1442   1.110       .  S
C1431      H1443   1.106       .  S
C1431      H1444   1.111       .  S
C1445      C1446   1.400       .  A
C1445      C1450   1.405       .  A
C1445      H1455   1.085       .  S
C1446      C1447   1.409       .  A
C1446      C1451   1.481       .  S
C1447      C1448   1.404       .  A
C1447      C1452   1.507       .  S
C1448      C1449   1.407       .  A
C1448      H1453   1.084       .  S
C1449      C1450   1.420       .  A
C1450      C1454   1.508       .  S
C1451      C1456   1.410       .  A
C1451      C1460   1.401       .  A
C1452      H1468   1.110       .  S
C1452      H1469   1.110       .  S
C1452      H1470   1.111       .  S
C1454      H1465   1.110       .  S
C1454      H1466   1.111       .  S
C1454      H1467   1.106       .  S
C1456      C1457   1.404       .  A
C1456      C1461   1.506       .  S
C1457      C1458   1.404       .  A
C1457      H1462   1.084       .  S
C1458      C1459   1.418       .  A
C1459      C1460   1.404       .  A
C1459      C1463   1.508       .  S
C1460      H1464   1.085       .  S
C1461      H1471   1.111       .  S
C1461      H1472   1.110       .  S
C1461      H1473   1.110       .  S
C1463      H1474   1.110       .  S
C1463      H1475   1.107       .  S
C1463      H1476   1.110       .  S
C1477      C1478   1.402       .  A
C1477      C1482   1.405       .  A
C1477      H1487   1.084       .  S
C1478      C1479   1.411       .  A
C1478      C1483   1.483       .  S
C1479      C1480   1.403       .  A
C1479      C1484   1.506       .  S
C1480      C1481   1.404       .  A
C1480      H1485   1.084       .  S
C1481      C1482   1.417       .  A
C1482      C1486   1.508       .  S
C1483      C1488   1.409       .  A
C1483      C1492   1.399       .  A
C1484      H1500   1.110       .  S
C1484      H1501   1.110       .  S
C1484      H1502   1.111       .  S
C1486      H1497   1.110       .  S
C1486      H1498   1.111       .  S
C1486      H1499   1.107       .  S
C1488      C1489   1.406       .  A
C1488      C1493   1.506       .  S
C1489      C1490   1.409       .  A
C1489      H1494   1.084       .  S
C1490      C1491   1.423       .  A
C1491      C1492   1.405       .  A
C1491      C1495   1.509       .  S
C1492      H1496   1.084       .  S
C1493      H1503   1.111       .  S
C1493      H1504   1.110       .  S
C1493      H1505   1.110       .  S
C1495      H1506   1.111       .  S
C1495      H1507   1.111       .  S
C1495      H1508   1.109       .  S
C1509      C1510   1.401       .  A
C1509      C1514   1.403       .  A
C1509      H1519   1.085       .  S
C1510      C1511   1.410       .  A
C1510      C1515   1.482       .  S
C1511      C1512   1.405       .  A
C1511      C1516   1.506       .  S
C1512      C1513   1.405       .  A
C1512      H1517   1.084       .  S
C1513      C1514   1.415       .  A
C1514      C1518   1.507       .  S
C1515      C1520   1.409       .  A
C1515      C1524   1.399       .  A
C1516      H1532   1.110       .  S
C1516      H1533   1.110       .  S
C1516      H1534   1.111       .  S
C1518      H1529   1.111       .  S
C1518      H1530   1.110       .  S
C1518      H1531   1.107       .  S
C1520      C1521   1.404       .  A
C1520      C1525   1.507       .  S
C1521      C1522   1.407       .  A
C1521      H1526   1.084       .  S
C1522      C1523   1.421       .  A
C1523      C1524   1.405       .  A
C1523      C1527   1.509       .  S
C1524      H1528   1.084       .  S
C1525      H1535   1.111       .  S
C1525      H1536   1.110       .  S
C1525      H1537   1.110       .  S
C1527      H1538   1.111       .  S
C1527      H1539   1.109       .  S
C1527      H1540   1.110       .  S
C1541      C1542   1.400       .  A
C1541      C1546   1.402       .  A
C1541      H1551   1.085       .  S
C1542      C1543   1.410       .  A
C1542      C1547   1.479       .  S
C1543      C1544   1.404       .  A
C1543      C1548   1.506       .  S
C1544      C1545   1.405       .  A
C1544      H1549   1.084       .  S
C1545      C1546   1.417       .  A
C1546      C1550   1.508       .  S
C1547      C1552   1.407       .  A
C1547      C1556   1.400       .  A
C1548      H1564   1.110       .  S
C1548      H1565   1.110       .  S
C1548      H1566   1.111       .  S
C1550      H1561   1.110       .  S
C1550      H1562   1.111       .  S
C1550      H1563   1.107       .  S
C1552      C1553   1.401       .  A
C1552      C1557   1.507       .  S
C1553      C1554   1.408       .  A
C1553      H1558   1.084       .  S
C1554      C1555   1.421       .  A
C1555      C1556   1.405       .  A
C1555      C1559   1.509       .  S
C1556      H1560   1.085       .  S
C1557      H1567   1.111       .  S
C1557      H1568   1.110       .  S
C1557      H1569   1.110       .  S
C1559      H1570   1.111       .  S
C1559      H1571   1.105       .  S
C1559      H1572   1.110       .  S
C1573      C1574   1.400       .  A
C1573      C1578   1.403       .  A
C1573      H1583   1.085       .  S
C1574      C1575   1.411       .  A
C1575      C1576   1.404       .  A
C1576      C1577   1.405       .  A
C1576      H1581   1.084   1_545  S
C1577      C1578   1.421       .  A
C1578      C1582   1.510       .  S
C1579      C1584   1.411       .  A
C1579      C1588   1.400       .  A
C1580      H1596   1.110       .  S
C1580      H1597   1.110       .  S
C1580      H1598   1.111       .  S
C1582      H1593   1.110       .  S
C1582      H1594   1.111       .  S
C1582      H1595   1.106       .  S
C1584      C1585   1.405       .  A
C1585      C1586   1.406       .  A
C1585      H1590   1.084       .  S
C1586      C1587   1.419       .  A
C1587      C1588   1.403       .  A
C1587      C1591   1.509       .  S
C1588      H1592   1.084       .  S
C1589      H1599   1.111       .  S
C1589      H1600   1.110       .  S
C1589      H1601   1.110       .  S
C1591      H1602   1.111       .  S
C1591      H1603   1.110       .  S
C1591      H1604   1.109       .  S
C1605      C1606   1.400       .  A
C1605      C1610   1.404       .  A
C1605      H1615   1.085       .  S
C1606      C1607   1.410       .  A
C1606      C1611   1.482       .  S
C1607      C1608   1.404       .  A
C1607      C1612   1.506       .  S
C1608      C1609   1.405       .  A
C1608      H1613   1.084       .  S
C1609      C1610   1.419       .  A
C1610      C1614   1.509       .  S
C1611      C1616   1.409       .  A
C1611      C1620   1.400   1_545  A
C1612      H1628   1.110       .  S
C1612      H1629   1.110       .  S
C1612      H1630   1.111       .  S
C1614      H1625   1.110       .  S
C1614      H1626   1.111       .  S
C1614      H1627   1.106       .  S
C1616      C1617   1.404       .  A
C1616      C1621   1.506       .  S
C1617      C1618   1.406   1_545  A
C1617      H1622   1.084       .  S
C1618      C1619   1.421       .  A
C1619      C1620   1.405       .  A
C1619      C1623   1.509       .  S
C1620      H1624   1.085       .  S
C1621      H1631   1.111       .  S
C1621      H1632   1.110       .  S
C1621      H1633   1.110       .  S
C1623      H1634   1.111       .  S
C1623      H1635   1.106       .  S
C1623      H1636   1.110       .  S
C1637      C1638   1.399       .  A
C1637      C1642   1.402       .  A
C1637      H1647   1.085       .  S
C1638      C1639   1.410       .  A
C1638      C1643   1.479       .  S
C1639      C1640   1.404       .  A
C1639      C1644   1.507       .  S
C1640      C1641   1.405       .  A
C1640      H1645   1.084       .  S
C1641      C1642   1.419       .  A
C1642      C1646   1.509       .  S
C1643      C1648   1.410       .  A
C1643      C1652   1.401       .  A
C1644      H1660   1.110       .  S
C1644      H1661   1.109       .  S
C1644      H1662   1.111       .  S
C1646      H1657   1.110       .  S
C1646      H1658   1.111       .  S
C1646      H1659   1.107       .  S
C1648      C1649   1.401       .  A
C1648      C1653   1.507       .  S
C1649      C1650   1.405       .  A
C1649      H1654   1.084       .  S
C1650      C1651   1.418       .  A
C1651      C1652   1.404       .  A
C1651      C1655   1.508       .  S
C1652      H1656   1.085       .  S
C1653      H1663   1.111       .  S
C1653      H1664   1.110       .  S
C1653      H1665   1.109       .  S
C1655      H1666   1.111       .  S
C1655      H1667   1.107       .  S
C1655      H1668   1.110       .  S
C1669      C1670   1.402       .  A
C1669      C1674   1.403       .  A
C1669      H1679   1.085       .  S
C1670      C1671   1.411       .  A
C1670      C1675   1.480       .  S
C1671      C1672   1.403       .  A
C1671      C1676   1.506       .  S
C1672      C1673   1.403       .  A
C1672      H1677   1.084       .  S
C1673      C1674   1.414       .  A
C1674      C1678   1.507       .  S
C1675      C1680   1.409       .  A
C1675      C1684   1.398       .  A
C1676      H1692   1.110       .  S
C1676      H1693   1.110       .  S
C1676      H1694   1.111       .  S
C1678      H1689   1.110       .  S
C1678      H1690   1.110       .  S
C1678      H1691   1.108       .  S
C1680      C1681   1.404       .  A
C1680      C1685   1.506       .  S
C1681      C1682   1.408       .  A
C1681      H1686   1.084       .  S
C1682      C1683   1.422       .  A
C1683      C1684   1.404       .  A
C1683      C1687   1.509       .  S
C1684      H1688   1.084       .  S
C1685      H1695   1.111       .  S
C1685      H1696   1.110       .  S
C1685      H1697   1.110       .  S
C1687      H1698   1.111       .  S
C1687      H1699   1.110       .  S
C1687      H1700   1.111       .  S
C1701      C1702   1.400       .  A
C1701      C1706   1.403       .  A
C1702      C1703   1.409       .  A
C1703      C1704   1.402       .  A
C1703      C1708   1.507       .  S
C1704      C1705   1.406       .  A
C1704      H1709   1.084       .  S
C1705      C1706   1.419       .  A
C1706      C1710   1.508       .  S
C1707      C1712   1.409       .  A
C1707      C1716   1.401   1_556  A
C1708      H1724   1.110       .  S
C1708      H1725   1.110       .  S
C1708      H1726   1.111       .  S
C1710      H1721   1.111       .  S
C1710      H1722   1.110       .  S
C1710      H1723   1.106       .  S
C1712      C1713   1.402       .  A
C1712      C1717   1.507       .  S
C1713      C1714   1.405       .  A
C1713      H1718   1.084       .  S
C1714      C1715   1.417       .  A
C1715      C1716   1.403   1_556  A
C1715      C1719   1.508       .  S
C1717      H1727   1.111       .  S
C1717      H1728   1.110       .  S
C1717      H1729   1.110       .  S
C1719      H1730   1.110   1_556  S
C1719      H1731   1.107       .  S
C1733      C1734   1.398       .  A
C1733      C1738   1.402       .  A
C1733      H1743   1.084       .  S
C1734      C1735   1.410       .  A
C1734      C1739   1.476       .  S
C1735      C1736   1.403       .  A
C1735      C1740   1.506       .  S
C1736      C1737   1.405       .  A
C1736      H1741   1.084       .  S
C1737      C1738   1.419       .  A
C1738      C1742   1.509       .  S
C1739      C1744   1.408       .  A
C1739      C1748   1.400       .  A
C1740      H1756   1.110       .  S
C1740      H1757   1.110       .  S
C1740      H1758   1.111       .  S
C1742      H1753   1.111       .  S
C1742      H1754   1.109       .  S
C1742      H1755   1.111       .  S
C1744      C1745   1.402       .  A
C1744      C1749   1.506       .  S
C1745      C1746   1.405       .  A
C1745      H1750   1.084       .  S
C1746      C1747   1.418       .  A
C1747      C1748   1.402       .  A
C1747      C1751   1.509       .  S
C1748      H1752   1.085       .  S
C1749      H1759   1.111   1_455  S
C1749      H1760   1.110       .  S
C1749      H1761   1.110       .  S
C1751      H1762   1.110       .  S
C1751      H1763   1.106       .  S
C1751      H1764   1.111       .  S
C1765      C1766   1.400       .  A
C1765      C1770   1.406       .  A
C1765      H1775   1.085       .  S
C1766      C1767   1.408       .  A
C1766      C1771   1.483       .  S
C1767      C1768   1.404       .  A
C1767      C1772   1.507       .  S
C1768      C1769   1.409       .  A
C1768      H1773   1.084       .  S
C1769      C1770   1.423       .  A
C1770      C1774   1.509       .  S
C1771      C1776   1.411       .  A
C1771      C1780   1.401       .  A
C1772      H1788   1.110       .  S
C1772      H1789   1.110       .  S
C1772      H1790   1.111       .  S
C1774      H1785   1.111       .  S
C1774      H1786   1.110       .  S
C1774      H1787   1.104       .  S
C1776      C1777   1.404       .  A
C1776      C1781   1.506       .  S
C1777      C1778   1.404       .  A
C1777      H1782   1.084       .  S
C1778      C1779   1.417       .  A
C1779      C1780   1.405       .  A
C1779      C1783   1.508       .  S
C1780      H1784   1.084       .  S
C1781      H1791   1.111       .  S
C1781      H1792   1.110       .  S
C1781      H1793   1.110       .  S
C1783      H1794   1.110       .  S
C1783      H1795   1.107       .  S
C1783      H1796   1.110       .  S
C1797      C1798   1.401       .  A
C1797      C1802   1.401       .  A
C1797      H1807   1.085       .  S
C1798      C1799   1.410       .  A
C1798      C1803   1.479       .  S
C1799      C1800   1.405       .  A
C1799      C1804   1.506       .  S
C1800      C1801   1.406       .  A
C1800      H1805   1.084       .  S
C1801      C1802   1.415       .  A
C1802      C1806   1.508       .  S
C1803      C1808   1.410       .  A
C1804      H1820   1.110       .  S
C1804      H1821   1.109       .  S
C1804      H1822   1.111       .  S
C1806      H1817   1.110       .  S
C1806      H1818   1.110       .  S
C1806      H1819   1.107       .  S
C1808      C1813   1.507       .  S
C1809      C1810   1.407       .  A
C1809      H1814   1.084       .  S
C1810      C1811   1.420       .  A
C1811      C1812   1.404       .  A
C1811      C1815   1.509       .  S
C1812      H1816   1.084       .  S
C1813      H1823   1.111       .  S
C1813      H1824   1.110       .  S
C1813      H1825   1.109       .  S
C1815      H1826   1.109       .  S
C1815      H1827   1.110       .  S
C1815      H1828   1.111       .  S
C1829      C1830   1.401       .  A
C1829      C1834   1.406       .  A
C1829      H1839   1.084       .  S
C1830      C1831   1.409       .  A
C1830      C1835   1.478       .  S
C1831      C1832   1.399       .  A
C1831      C1836   1.507       .  S
C1832      C1833   1.405       .  A
C1832      H1837   1.084       .  S
C1833      C1834   1.420       .  A
C1834      C1838   1.508       .  S
C1835      C1840   1.411       .  A
C1835      C1844   1.400       .  A
C1836      H1852   1.110       .  S
C1836      H1853   1.110       .  S
C1836      H1854   1.111       .  S
C1838      H1849   1.109       .  S
C1838      H1850   1.111       .  S
C1838      H1851   1.111       .  S
C1840      C1841   1.403       .  A
C1840      C1845   1.507       .  S
C1841      C1842   1.403       .  A
C1841      H1846   1.084       .  S
C1842      C1843   1.416       .  A
C1843      C1844   1.401       .  A
C1843      C1847   1.508       .  S
C1844      H1848   1.085       .  S
C1845      H1855   1.111       .  S
C1845      H1856   1.110       .  S
C1845      H1857   1.110       .  S
C1847      H1858   1.110       .  S
C1847      H1859   1.108       .  S
C1847      H1860   1.110       .  S
C1861      C1862   1.402       .  A
C1861      C1866   1.404       .  A
C1861      H1871   1.084       .  S
C1862      C1863   1.410       .  A
C1862      C1867   1.480   1_655  S
C1863      C1864   1.402       .  A
C1863      C1868   1.507       .  S
C1864      C1865   1.404       .  A
C1864      H1869   1.084       .  S
C1865      C1866   1.416       .  A
C1866      C1870   1.507       .  S
C1867      C1872   1.409       .  A
C1867      C1876   1.400       .  A
C1868      H1884   1.110       .  S
C1868      H1885   1.110       .  S
C1868      H1886   1.111       .  S
C1870      H1881   1.111       .  S
C1870      H1882   1.110       .  S
C1870      H1883   1.108       .  S
C1872      C1873   1.403       .  A
C1872      C1877   1.506       .  S
C1873      C1874   1.407       .  A
C1873      H1878   1.084       .  S
C1874      C1875   1.419       .  A
C1875      C1876   1.402       .  A
C1875      C1879   1.509       .  S
C1876      H1880   1.085   1_455  S
C1877      H1887   1.111       .  S
C1877      H1888   1.110       .  S
C1877      H1889   1.110       .  S
C1879      H1890   1.110       .  S
C1879      H1891   1.105       .  S
C1879      H1892   1.111       .  S
C1893      C1894   1.402       .  A
C1893      C1898   1.404       .  A
C1893      H1903   1.085       .  S
C1894      C1895   1.412       .  A
C1894      C1899   1.482       .  S
C1895      C1896   1.403       .  A
C1895      C1900   1.507       .  S
C1896      C1897   1.403       .  A
C1896      H1901   1.084       .  S
C1897      C1898   1.415       .  A
C1898      C1902   1.507       .  S
C1899      C1904   1.410       .  A
C1899      C1908   1.400       .  A
C1900      H1916   1.110       .  S
C1900      H1917   1.110       .  S
C1900      H1918   1.111       .  S
C1902      H1913   1.111       .  S
C1902      H1914   1.110       .  S
C1902      H1915   1.108       .  S
C1904      C1905   1.407       .  A
C1904      C1909   1.505       .  S
C1905      C1906   1.406       .  A
C1905      H1910   1.084       .  S
C1906      C1907   1.417       .  A
C1907      C1908   1.401       .  A
C1907      C1911   1.509       .  S
C1908      H1912   1.085       .  S
C1909      H1919   1.111       .  S
C1909      H1920   1.110       .  S
C1909      H1921   1.110       .  S
C1911      H1922   1.110       .  S
C1911      H1923   1.106       .  S
C1911      H1924   1.111       .  S
C1925      C1930   1.406   1_554  A
C1926      C1931   1.482       .  S
C1927      C1928   1.403       .  A
C1927      C1932   1.507       .  S
C1928      C1929   1.411       .  A
C1928      H1933   1.083       .  S
C1929      C1930   1.425       .  A
C1930      C1934   1.508       .  S
C1931      C1936   1.411       .  A
C1931      C1940   1.401       .  A
C1932      H1949   1.110       .  S
C1932      H1950   1.111       .  S
C1934      H1945   1.111   1_556  S
C1934      H1946   1.110       .  S
C1934      H1947   1.110       .  S
C1936      C1937   1.406       .  A
C1937      C1938   1.403       .  A
C1937      H1942   1.084       .  S
C1938      C1939   1.416       .  A
C1939      C1940   1.402       .  A
C1939      C1943   1.508       .  S
C1940      H1944   1.085       .  S
C1941      H1951   1.111       .  S
C1941      H1952   1.110       .  S
C1941      H1953   1.110   1_554  S
C1943      H1954   1.110       .  S
C1943      H1955   1.107       .  S
C1943      H1956   1.110       .  S
C1957      C1958   1.402       .  A
C1957      C1962   1.404       .  A
C1957      H1967   1.084       .  S
C1958      C1959   1.412       .  A
C1958      C1963   1.484       .  S
C1959      C1960   1.405       .  A
C1959      C1964   1.506       .  S
C1960      C1961   1.403       .  A
C1960      H1965   1.084       .  S
C1961      C1962   1.417       .  A
C1962      C1966   1.508       .  S
C1963      C1968   1.409       .  A
C1963      C1972   1.401       .  A
C1964      H1980   1.110       .  S
C1964      H1981   1.110       .  S
C1964      H1982   1.111       .  S
C1966      H1977   1.111       .  S
C1966      H1978   1.110       .  S
C1966      H1979   1.108       .  S
C1968      C1969   1.403       .  A
C1968      C1973   1.507       .  S
C1969      C1970   1.407       .  A
C1969      H1974   1.084       .  S
C1970      C1971   1.422       .  A
C1971      C1972   1.406       .  A
C1971      C1975   1.509       .  S
C1972      H1976   1.085       .  S
C1973      H1983   1.111       .  S
C1973      H1984   1.110       .  S
C1973      H1985   1.110       .  S
C1975      H1986   1.110       .  S
C1975      H1987   1.105       .  S
C1975      H1988   1.111       .  S
C1989      C1990   1.402       .  A
C1989      C1994   1.404       .  A
C1989      H1999   1.085       .  S
C1990      C1991   1.411       .  A
C1990      C1995   1.485       .  S
C1991      C1992   1.405       .  A
C1991      C1996   1.506       .  S
C1992      C1993   1.404       .  A
C1992      H1997   1.084       .  S
C1993      C1994   1.415       .  A
C1994      C1998   1.508       .  S
C1995      C2000   1.411       .  A
C1996      H2013   1.110       .  S
C1996      H2014   1.111       .  S
C1998      H2009   1.111       .  S
C1998      H2010   1.110       .  S
C1998      H2011   1.108       .  S
C2000      C2005   1.507       .  S
C2001      C2002   1.406       .  A
C2001      H2006   1.084       .  S
C2002      C2003   1.421       .  A
C2003      C2004   1.405       .  A
C2003      C2007   1.509       .  S
C2004      H2008   1.084       .  S
C2005      H2015   1.111       .  S
C2005      H2016   1.110       .  S
C2005      H2017   1.110       .  S
C2007      H2018   1.110       .  S
C2007      H2019   1.107       .  S
C2007      H2020   1.111       .  S
C2021      C2022   1.400       .  A
C2021      C2026   1.403       .  A
C2021      H2031   1.084       .  S
C2022      C2023   1.411       .  A
C2022      C2027   1.480       .  S
C2023      C2024   1.403       .  A
C2023      C2028   1.507       .  S
C2024      C2025   1.404       .  A
C2024      H2029   1.084       .  S
C2025      C2026   1.417       .  A
C2026      C2030   1.508       .  S
C2027      C2032   1.410       .  A
C2027      C2036   1.401       .  A
C2028      H2044   1.110       .  S
C2028      H2045   1.110       .  S
C2028      H2046   1.111       .  S
C2030      H2041   1.110       .  S
C2030      H2042   1.110       .  S
C2030      H2043   1.108       .  S
C2032      C2033   1.401       .  A
C2032      C2037   1.507       .  S
C2033      C2034   1.405       .  A
C2033      H2038   1.084       .  S
C2034      C2035   1.418       .  A
C2035      C2036   1.406       .  A
C2035      C2039   1.508       .  S
C2036      H2040   1.084       .  S
C2037      H2047   1.111       .  S
C2037      H2048   1.110       .  S
C2037      H2049   1.110       .  S
C2039      H2050   1.111       .  S
C2039      H2051   1.111       .  S
C2039      H2052   1.109       .  S
C2053      C2054   1.402       .  A
C2053      C2058   1.405       .  A
C2053      H2063   1.084       .  S
C2054      C2055   1.412       .  A
C2054      C2059   1.487       .  S
C2055      C2056   1.406       .  A
C2055      C2060   1.507       .  S
C2056      C2057   1.406       .  A
C2056      H2061   1.084       .  S
C2057      C2058   1.419       .  A
C2058      C2062   1.509       .  S
C2059      C2064   1.413       .  A
C2059      C2068   1.402       .  A
C2060      H2076   1.109       .  S
C2060      H2077   1.110       .  S
C2060      H2078   1.111       .  S
C2062      H2073   1.111       .  S
C2062      H2074   1.110       .  S
C2062      H2075   1.106       .  S
C2064      C2065   1.406       .  A
C2064      C2069   1.506       .  S
C2065      C2066   1.404       .  A
C2065      H2070   1.084       .  S
C2066      C2067   1.417       .  A
C2067      C2068   1.403       .  A
C2067      C2071   1.508       .  S
C2068      H2072   1.084       .  S
C2069      H2079   1.111       .  S
C2069      H2080   1.110       .  S
C2069      H2081   1.110       .  S
C2071      H2082   1.110       .  S
C2071      H2083   1.107       .  S
C2071      H2084   1.111       .  S
C2085      C2086   1.399       .  A
C2085      C2090   1.405       .  A
C2085      H2095   1.084       .  S
C2086      C2087   1.410       .  A
C2086      C2091   1.481       .  S
C2087      C2088   1.403       .  A
C2087      C2092   1.507       .  S
C2088      C2089   1.406       .  A
C2088      H2093   1.084       .  S
C2089      C2090   1.421       .  A
C2090      C2094   1.509       .  S
C2091      C2096   1.410       .  A
C2091      C2100   1.401       .  A
C2092      H2108   1.110       .  S
C2092      H2109   1.110       .  S
C2092      H2110   1.111       .  S
C2094      H2105   1.111       .  S
C2094      H2106   1.109       .  S
C2094      H2107   1.110       .  S
C2096      C2097   1.406       .  A
C2096      C2101   1.506       .  S
C2097      C2098   1.404       .  A
C2097      H2102   1.084       .  S
C2098      C2099   1.415       .  A
C2099      C2100   1.402       .  A
C2099      C2103   1.508       .  S
C2100      H2104   1.085       .  S
C2101      H2111   1.111       .  S
C2101      H2112   1.110       .  S
C2101      H2113   1.110       .  S
C2103      H2114   1.110       .  S
C2103      H2115   1.107       .  S
C2103      H2116   1.110       .  S
C2117      C2122   1.405       .  A
C2117      H2127   1.084       .  S
C2118      C2119   1.410       .  A
C2118      C2123   1.479       .  S
C2119      C2124   1.507       .  S
C2120      C2121   1.405       .  A
C2120      H2125   1.084       .  S
C2121      C2122   1.419       .  A
C2122      C2126   1.508       .  S
C2123      C2128   1.410       .  A
C2123      C2132   1.400       .  A
C2124      H2140   1.110       .  S
C2124      H2141   1.110       .  S
C2124      H2142   1.111       .  S
C2126      H2137   1.111       .  S
C2126      H2138   1.110       .  S
C2126      H2139   1.109       .  S
C2128      C2129   1.403       .  A
C2128      C2133   1.506       .  S
C2129      C2130   1.404       .  A
C2129      H2134   1.084       .  S
C2130      C2131   1.416       .  A
C2131      C2132   1.402       .  A
C2131      C2135   1.507       .  S
C2132      H2136   1.084       .  S
C2133      H2143   1.111       .  S
C2133      H2144   1.110       .  S
C2133      H2145   1.110       .  S
C2135      H2146   1.111       .  S
C2135      H2147   1.108       .  S
C2135      H2148   1.110       .  S
C2149      C2150   1.401       .  A
C2149      C2154   1.402       .  A
C2149      H2159   1.084       .  S
C2150      C2151   1.410       .  A
C2150      C2155   1.479       .  S
C2151      C2152   1.402       .  A
C2151      C2156   1.506       .  S
C2152      C2153   1.403       .  A
C2152      H2157   1.084       .  S
C2153      C2154   1.416       .  A
C2154      C2158   1.508       .  S
C2155      C2160   1.410       .  A
C2155      C2164   1.400       .  A
C2156      H2172   1.110       .  S
C2156      H2173   1.110       .  S
C2156      H2174   1.111       .  S
C2158      H2169   1.111       .  S
C2158      H2170   1.110       .  S
C2158      H2171   1.107       .  S
C2160      C2161   1.402       .  A
C2160      C2165   1.507       .  S
C2161      C2162   1.405   1_565  A
C2161      H2166   1.084       .  S
C2162      C2163   1.419   1_545  A
C2163      C2164   1.402       .  A
C2163      C2167   1.509   1_565  S
C2164      H2168   1.085       .  S
C2165      H2175   1.111       .  S
C2165      H2176   1.110       .  S
C2165      H2177   1.110       .  S
C2167      H2178   1.110       .  S
C2167      H2179   1.106       .  S
C2167      H2180   1.111       .  S
C2181      C2182   1.401       .  A
C2181      C2186   1.402       .  A
C2181      H2191   1.085       .  S
C2182      C2183   1.410       .  A
C2182      C2187   1.475   1_556  S
C2183      C2184   1.400       .  A
C2183      C2188   1.507       .  S
C2184      C2185   1.402       .  A
C2184      H2189   1.085       .  S
C2185      C2186   1.415       .  A
C2186      C2190   1.507       .  S
C2187      C2196   1.399   1_554  A
C2188      H2204   1.110       .  S
C2188      H2205   1.110   1_556  S
C2188      H2206   1.111       .  S
C2190      H2201   1.111       .  S
C2190      H2202   1.110       .  S
C2190      H2203   1.108       .  S
C2192      C2193   1.403       .  A
C2192      C2197   1.506       .  S
C2193      C2194   1.405       .  A
C2193      H2198   1.084       .  S
C2194      C2195   1.418       .  A
C2195      C2199   1.509       .  S
C2196      H2200   1.084       .  S
C2197      H2207   1.111       .  S
C2197      H2208   1.110       .  S
C2197      H2209   1.110       .  S
C2199      H2210   1.109       .  S
C2199      H2211   1.110       .  S
C2213      C2214   1.402       .  A
C2213      C2218   1.403       .  A
C2213      H2223   1.084       .  S
C2214      C2215   1.412       .  A
C2214      C2219   1.481       .  S
C2215      C2216   1.402       .  A
C2215      C2220   1.507       .  S
C2216      C2217   1.402       .  A
C2216      H2221   1.084       .  S
C2217      C2218   1.415       .  A
C2218      C2222   1.507       .  S
C2219      C2224   1.409       .  A
C2219      C2228   1.400       .  A
C2220      H2236   1.110       .  S
C2220      H2237   1.110       .  S
C2220      H2238   1.111       .  S
C2222      H2233   1.110       .  S
C2222      H2234   1.110       .  S
C2222      H2235   1.108       .  S
C2224      C2225   1.402       .  A
C2224      C2229   1.507       .  S
C2225      C2226   1.408       .  A
C2225      H2230   1.083       .  S
C2226      C2227   1.422       .  A
C2227      C2228   1.405       .  A
C2227      C2231   1.508       .  S
C2228      H2232   1.084       .  S
C2229      H2239   1.111       .  S
C2229      H2240   1.110       .  S
C2229      H2241   1.110       .  S
C2231      H2242   1.110       .  S
C2231      H2243   1.109       .  S
C2231      H2244   1.111       .  S
C2245      C2246   1.399       .  A
C2245      C2250   1.402       .  A
C2245      H2255   1.085       .  S
C2246      C2247   1.408       .  A
C2246      C2251   1.476       .  S
C2247      C2248   1.402       .  A
C2247      C2252   1.507       .  S
C2248      C2249   1.405       .  A
C2248      H2253   1.084       .  S
C2249      C2250   1.419       .  A
C2250      C2254   1.509       .  S
C2251      C2256   1.410       .  A
C2251      C2260   1.399       .  A
C2252      H2268   1.110       .  S
C2252      H2269   1.110       .  S
C2252      H2270   1.111       .  S
C2254      H2265   1.111       .  S
C2254      H2266   1.110       .  S
C2254      H2267   1.106       .  S
C2256      C2257   1.402       .  A
C2256      C2261   1.506       .  S
C2257      C2258   1.404       .  A
C2257      H2262   1.084       .  S
C2258      C2259   1.417       .  A
C2259      C2260   1.401       .  A
C2259      C2263   1.508       .  S
C2260      H2264   1.085       .  S
C2261      H2271   1.111       .  S
C2261      H2272   1.110       .  S
C2261      H2273   1.110       .  S
C2263      H2274   1.110       .  S
C2263      H2275   1.107       .  S
C2263      H2276   1.110       .  S
C2277      C2278   1.401       .  A
C2277      C2282   1.403       .  A
C2277      H2287   1.084       .  S
C2278      C2279   1.411       .  A
C2278      C2283   1.478       .  S
C2279      C2280   1.402       .  A
C2279      C2284   1.507       .  S
C2280      C2281   1.402       .  A
C2280      H2285   1.084       .  S
C2281      C2282   1.414       .  A
C2282      C2286   1.507       .  S
C2283      C2288   1.409       .  A
C2283      C2292   1.400       .  A
C2284      H2300   1.110       .  S
C2284      H2301   1.110       .  S
C2284      H2302   1.111       .  S
C2286      H2297   1.110       .  S
C2286      H2298   1.110       .  S
C2286      H2299   1.108       .  S
C2288      C2289   1.403       .  A
C2288      C2293   1.506       .  S
C2289      C2290   1.407       .  A
C2289      H2294   1.084       .  S
C2290      C2291   1.418       .  A
C2291      C2292   1.403       .  A
C2291      C2295   1.508       .  S
C2292      H2296   1.084       .  S
C2293      H2303   1.111       .  S
C2293      H2304   1.110       .  S
C2293      H2305   1.110       .  S
C2295      H2306   1.111       .  S
C2295      H2307   1.110       .  S
C2295      H2308   1.110       .  S
C2309      C2310   1.401       .  A
C2309      C2314   1.402       .  A
C2309      H2319   1.084       .  S
C2310      C2311   1.410       .  A
C2310      C2315   1.477       .  S
C2311      C2312   1.401       .  A
C2311      C2316   1.507       .  S
C2312      C2313   1.403       .  A
C2312      H2317   1.084       .  S
C2313      C2314   1.414       .  A
C2314      C2318   1.507       .  S
C2315      C2320   1.409       .  A
C2316      H2332   1.110       .  S
C2316      H2333   1.110       .  S
C2316      H2334   1.111       .  S
C2318      H2329   1.110       .  S
C2318      H2330   1.111       .  S
C2318      H2331   1.108       .  S
C2320      C2325   1.508       .  S
C2321      C2322   1.405       .  A
C2321      H2326   1.084       .  S
C2322      C2323   1.419       .  A
C2323      C2324   1.405       .  A
C2323      C2327   1.508       .  S
C2324      H2328   1.084       .  S
C2325      H2335   1.111       .  S
C2325      H2336   1.110       .  S
C2325      H2337   1.110       .  S
C2327      H2338   1.111       .  S
C2327      H2339   1.110       .  S
C2327      H2340   1.109       .  S
