geometry optimzed in LAMMPS
_audit_creation_date              2020-11-30 
_audit_creation_method            'lammps2cif' 
_symmetry_space_group_name_H-M    'P1' 
_symmetry_Int_Tables_number       1 
_symmetry_cell_setting            triclinic 
loop_ 
_symmetry_equiv_pos_as_xyz 
  x,y,z 
_cell_length_a                    46.87173489 
_cell_length_b                    46.941350181251615 
_cell_length_c                    31.488414906087396 
_cell_angle_alpha                 90.02792263460965 
_cell_angle_beta                  90.06865278611104 
_cell_angle_gamma                 120.07001693899599 
loop_ 
_atom_site_label 
_atom_site_type_symbol 
_atom_site_fract_x 
_atom_site_fract_y 
_atom_site_fract_z 
_atom_site_charge 
C1          C  0.41848878  0.22961560  0.12668274     0.79900
N2          N  0.41726613  0.21159875  0.16153101    -0.78400
C3          C  0.41921683  0.18379448  0.15732535     0.82300
N4          N  0.42153770  0.17357050  0.11858459    -0.78400
C5          C  0.42294390  0.19050122  0.08365094     0.82400
N6          N  0.42123133  0.21861137  0.08720926    -0.80100
C7          C  0.22191250  0.75143066  0.38016493     0.79900
N8          N  0.21252593  0.73225492  0.34447112    -0.78400
C9          C  0.18624431  0.70109054  0.34541003     0.82300
N10         N  0.16872287  0.68978026  0.38133222    -0.78400
C11         C  0.17679698  0.70826398  0.41669347     0.82400
N12         N  0.20351926  0.73935158  0.41645303    -0.80100
C13         C  0.67177652  0.14998857  0.13595581     0.79900
N14         N  0.69096185  0.16384822  0.17113645    -0.78400
C15         C  0.71998042  0.19259854  0.16825057     0.82300
N16         N  0.72952734  0.20796369  0.13084550    -0.78400
C17         C  0.71118473  0.19560444  0.09569300     0.82400
N18         N  0.68216812  0.16620063  0.09769479    -0.80100
C19         C  0.47442121  0.68414062  0.37788293     0.79900
N20         N  0.46287972  0.69073433  0.34122467    -0.78400
C21         C  0.45991378  0.71822683  0.33881260     0.82300
N22         N  0.46908255  0.73894554  0.37200582    -0.78400
C23         C  0.48062626  0.73320846  0.40791365     0.82400
N24         N  0.48300375  0.70560512  0.41125255    -0.80100
C25         C  0.74904335  0.48157014  0.13236849     0.79900
N26         N  0.73813393  0.48604196  0.09362101    -0.78400
C27         C  0.70897365  0.48611328  0.09132287     0.82300
N28         N  0.69144721  0.48175416  0.12668271    -0.78400
C29         C  0.70169888  0.47767395  0.16462359     0.82400
N30         N  0.73086603  0.47823815  0.16796387    -0.80100
C31         C  0.14326617  0.42999553  0.37342078     0.79900
N32         N  0.15732858  0.43367207  0.33406438    -0.78400
C33         C  0.18715130  0.43552386  0.33033201     0.82300
N34         N  0.20221407  0.43295331  0.36499256    -0.78400
C35         C  0.18909714  0.42872954  0.40384523     0.82400
N36         N  0.15924509  0.42704951  0.40843019    -0.80100
Zr37       Zr  0.94235216  0.42128662  0.38525160     2.17500
O38         O  0.98104555  0.48042638  0.38255788    -0.51700
O39         O  0.99697028  0.42409575  0.38567705    -0.74900
O40         O  0.94850305  0.44942662  0.45529299    -0.81700
O41         O  0.92226088  0.41151894  0.26303611    -0.83400
O42         O  0.91614197  0.41351615  0.50646591    -0.79000
O43         O  0.94924187  0.44922903  0.31533952    -0.90700
O44         O  0.98891612  0.37224624  0.38965950    -0.76600
O45         O  0.93203853  0.37939755  0.43606680    -0.86100
O46         O  0.93968236  0.37661910  0.34502648    -0.85800
O47         O  0.89016288  0.40642639  0.41919032    -0.72600
O48         O  0.89708248  0.40251569  0.33577409    -0.84700
Zr49       Zr  0.83490332  0.30295152  0.38153355     2.26400
Zr50       Zr  0.87959804  0.36325299  0.46917624     2.06300
Zr51       Zr  0.89399073  0.35719966  0.29651648     2.10000
Zr52       Zr  0.93007873  0.33522372  0.39623797     1.78800
O53         O  0.88456425  0.36114972  0.22111943    -0.93500
O54         O  0.95426644  0.33128423  0.46298664    -0.41300
O55         O  0.88512826  0.31532631  0.34657061    -0.77900
O56         O  0.87861142  0.31863535  0.43159374    -0.96600
O57         O  0.83594194  0.34694456  0.41968900    -0.89900
O58         O  0.84331307  0.34366520  0.33014812    -0.92800
C59         C  0.00763264  0.40344912  0.38609473     1.01000
C60         C  0.94062744  0.44132844  0.27591639     1.13900
C61         C  0.93769467  0.44233557  0.49405637     1.04700
O62         O  0.90051310  0.34325303  0.52571463    -0.94900
O63         O  0.82802561  0.31653379  0.49744988    -0.90700
O64         O  0.80255603  0.27991439  0.44405571    -0.83800
C65         C  0.80409955  0.28942219  0.48240747     1.11300
O66         O  0.86665260  0.44718424  0.36398268    -0.96900
Zr67       Zr  0.84590322  0.38815705  0.36884221     1.88900
O68         O  0.78094230  0.29588220  0.36782928    -0.73600
O69         O  0.85034172  0.38126922  0.51620932    -0.52800
O70         O  0.81626019  0.40353265  0.41877125    -0.97500
O71         O  0.83189669  0.40295640  0.30088488    -0.54700
O72         O  0.78765269  0.34713704  0.36102140    -0.74100
C73         C  0.76983903  0.31556520  0.36201026     0.98300
O74         O  0.82101010  0.24587182  0.39132617    -0.62900
O75         O  0.93177083  0.34012346  0.26916171    -0.57700
O76         O  0.81625688  0.27240437  0.31772729    -0.94400
O77         O  0.84627226  0.30785546  0.26490800    -0.92800
O78         O  0.94701580  0.30944731  0.34243529    -0.93200
O79         O  0.91529594  0.27891260  0.41359574    -0.91900
C80         C  0.82208387  0.28047827  0.27881674     1.17100
H81         H  0.95952678  0.38352321  0.32879556     0.33100
H82         H  0.87351571  0.30068864  0.45084585     0.43900
H83         H  0.82550670  0.33597996  0.30985735     0.37400
H84         H  0.89103680  0.42497457  0.43367234     0.33900
H85         H  0.97050428  0.32465925  0.45475158     0.25700
H86         H  0.86105548  0.38357998  0.04303841     0.31600
H87         H  0.81974188  0.39619786  0.44677360     0.37600
H88         H  0.96606786  0.30887733  0.35510882     0.32000
H89         H  0.91920750  0.32369782  0.24681116     0.30900
H90         H  0.89520406  0.35040433  0.20608822     0.32600
H91         H  0.81753262  0.38178706  0.28631276     0.31500
H92         H  0.89351268  0.26511694  0.40007016     0.35500
H93         H  0.83603292  0.24293974  0.37207263     0.28300
H94         H  0.99785986  0.48476423  0.40457352     0.32500
H95         H  0.84694414  0.44957804  0.36074955     0.35400
H96         H  0.94879219  0.35953600  0.25357852     0.28000
H97         H  0.82901848  0.24499198  0.42013670     0.40800
H98         H  0.88169210  0.33136649  0.54534840     0.30900
H99         H  0.96787259  0.35427935  0.47298811     0.38500
H100        H  0.85270510  0.41305864  0.28448130     0.30400
H101        H  0.85740592  0.40420539  0.50790854     0.30400
H102        H  0.96877947  0.49103930  0.39331541     0.30700
Zr103      Zr  0.94785676  0.48919824  0.13493067     2.17500
O104        O  0.91075298  0.42978254  0.13084604    -0.51700
O105        O  0.89305366  0.48449730  0.14028246    -0.74900
O106        O  0.94182312  0.46072095  0.20447259    -0.81700
O107        O  0.96799733  0.49905178  0.01192748    -0.83400
O108        O  0.97410732  0.49717518  0.25528900    -0.79000
O109        O  0.94109543  0.46190203  0.06464040    -0.90700
O110        O  0.90001098  0.53532295  0.15203930    -0.76600
O111        O  0.95705511  0.53125888  0.18495450    -0.86100
O112        O  0.94926249  0.53310114  0.09383967    -0.85800
O113        O  0.99987064  0.50476784  0.16957557    -0.72600
O114        O  0.99276212  0.50831313  0.08538111    -0.84700
Zr115      Zr  0.05306921  0.60866710  0.12858676     2.26400
Zr116      Zr  0.00952552  0.54846601  0.21821949     2.06300
Zr117      Zr  0.99513245  0.55299844  0.04492829     2.10000
Zr118      Zr  0.95814060  0.57471055  0.14453319     1.78800
O119        O  0.00669362  0.54668862  0.97116857    -0.93500
O120        O  0.94049067  0.58742017  0.21117567    -0.41300
O121        O  0.00243351  0.59498254  0.09377399    -0.77900
O122        O  0.00988724  0.59257525  0.17974925    -0.96600
O123        O  0.05290637  0.56553937  0.16823056    -0.89900
O124        O  0.04552713  0.56720230  0.07918260    -0.92800
C125        C  0.88185793  0.50410243  0.14782514     1.01000
C126        C  0.94993653  0.46950968  0.02528370     1.13900
C127        C  0.95263030  0.46808332  0.24320602     1.04700
O128        O  0.98726272  0.56986092  0.27115146    -0.94900
O129        O  0.06297115  0.59436189  0.24271003    -0.90700
O130        O  0.08578083  0.63255617  0.19038374    -0.83800
C131        C  0.08566401  0.62219856  0.22780763     1.11300
O132        O  0.02897798  0.46587999  0.11738500    -0.96900
Zr133      Zr  0.04379171  0.52359942  0.11923585     1.88900
O134        O  0.10709881  0.61627831  0.11398133    -0.73600
O135        O  0.03853173  0.53598892  0.27303622    -0.52800
O136        O  0.07531638  0.51315067  0.17227264    -0.97500
O137        O  0.05722316  0.50800145  0.05146137    -0.54700
O138        O  0.10072299  0.56498152  0.10902649    -0.74100
C139        C  0.11796858  0.59643284  0.10786800     0.98300
O140        O  0.06401657  0.66507174  0.13447331    -0.62900
O141        O  0.95759552  0.56817908  0.01199180    -0.57700
O142        O  0.07280088  0.63834302  0.06381920    -0.94400
O143        O  0.04335519  0.60178456  0.01194547    -0.92800
O144        O  0.93061283  0.59010249  0.09125437    -0.93200
O145        O  0.97377979  0.63239697  0.15203545    -0.91900
C146        C  0.06780564  0.62949797  0.02496778     1.17100
H147        H  0.92889148  0.52565229  0.07844196     0.33100
H148        H  0.01480710  0.61069691  0.19864916     0.43900
H149        H  0.06316271  0.57458383  0.05878207     0.37400
H150        H  0.99955072  0.48659016  0.18432501     0.33900
H151        H  0.92125795  0.58975589  0.20354669     0.25700
H152        H  0.02729818  0.53507854  0.30004528     0.31600
H153        H  0.07005743  0.51997057  0.19954340     0.37600
H154        H  0.94823898  0.60444999  0.07117524     0.32000
H155        H  0.97053542  0.58589584  0.49647519     0.30900
H156        H  0.98462111  0.54832998  0.45668355     0.32600
H157        H  0.08160018  0.51936848  0.05058115     0.31500
H158        H  0.99038562  0.64394548  0.12955768     0.35500
H159        H  0.05056949  0.66734286  0.11189628     0.28300
H160        H  0.89363496  0.42460762  0.15266377     0.32500
H161        H  0.04992488  0.46599950  0.11267818     0.35400
H162        H  0.94280348  0.54896929  0.99418014     0.28000
H163        H  0.05305726  0.66545342  0.16113703     0.40800
H164        H  0.00629416  0.58415455  0.28955232     0.30900
H165        H  0.93106550  0.56681480  0.22785381     0.38500
H166        H  0.05120275  0.51930517  0.02971024     0.30400
H167        H  0.03343962  0.51311215  0.26775613     0.30400
H168        H  0.92361366  0.41976779  0.14151577     0.30700
Zr169      Zr  0.40831881  0.95519110  0.37825446     2.17500
O170        O  0.43563523  0.92261519  0.37396375    -0.51700
O171        O  0.35854680  0.89984105  0.38105039    -0.74900
O172        O  0.42988158  0.94868517  0.44812317    -0.81700
O173        O  0.42273330  0.97853055  0.25615593    -0.83400
O174        O  0.42674243  0.98213253  0.49790597    -0.79000
O175        O  0.42935015  0.94845391  0.30796221    -0.90700
O176        O  0.31348997  0.90599596  0.38304689    -0.76600
O177        O  0.37191955  0.96143468  0.42593333    -0.86100
O178        O  0.36760942  0.95764772  0.33436613    -0.85800
O179        O  0.44147396  0.00603584  0.41716498    -0.72600
O180        O  0.43625476  0.00159960  0.33144732    -0.84700
Zr181      Zr  0.39247499  0.05941578  0.37465669     2.26400
Zr182      Zr  0.40399014  0.01277576  0.46341794     2.06300
Zr183      Zr  0.39552835  0.00540067  0.28912496     2.10000
Zr184      Zr  0.33148827  0.96372862  0.38221444     1.78800
O185        O  0.41661389  0.02158582  0.21720809    -0.93500
O186        O  0.29972347  0.94201173  0.44735232    -0.41300
O187        O  0.35796862  0.01034373  0.33539303    -0.77900
O188        O  0.36214796  0.01401338  0.42149560    -0.96600
O189        O  0.43375821  0.05804168  0.41723374    -0.89900
O190        O  0.42940763  0.05469736  0.32739880    -0.92800
C191        C  0.32712590  0.88831715  0.38240533     1.01000
C192        C  0.43234388  0.95876862  0.26897762     1.13900
C193        C  0.43444309  0.96070392  0.48626117     1.04700
O194        O  0.35359769  0.98511296  0.50518198    -0.94900
O195        O  0.41521360  0.06836830  0.48585741    -0.90700
O196        O  0.39197858  0.08646009  0.43799640    -0.83800
C197        C  0.40682336  0.08933236  0.47296312     1.11300
O198        O  0.51051799  0.03420303  0.36635108    -0.96900
Zr199      Zr  0.46913551  0.05101815  0.36976896     1.88900
O200        O  0.44026153  0.11412891  0.37434015    -0.73600
O201        O  0.42564731  0.03115411  0.53499614    -0.52800
O202        O  0.51426238  0.07627877  0.42068681    -0.97500
O203        O  0.49845924  0.07061890  0.30262049    -0.54700
O204        O  0.48551617  0.10813229  0.37513218    -0.74100
C205        C  0.47143148  0.12545292  0.37541335     0.98300
O206        O  0.34667714  0.07013302  0.37544992    -0.62900
O207        O  0.34394432  0.96872694  0.25295539    -0.57700
O208        O  0.38830001  0.08351699  0.31022628    -0.94400
O209        O  0.39522762  0.05398961  0.25831287    -0.92800
O210        O  0.29187645  0.93904179  0.32440940    -0.93200
O211        O  0.28547626  0.97398452  0.38627824    -0.91900
C212        C  0.39207009  0.07838605  0.27150236     1.17100
H213        H  0.35587033  0.93795598  0.31735556     0.33100
H214        H  0.34751487  0.01794944  0.43890066     0.43900
H215        H  0.44075264  0.07365208  0.30915173     0.37400
H216        H  0.45951252  0.00648046  0.43247114     0.33900
H217        H  0.27730897  0.92536133  0.43783588     0.25700
H218        H  0.44262039  0.02888004  0.04483059     0.31600
H219        H  0.50331960  0.07306923  0.44857039     0.37600
H220        H  0.27323415  0.91886173  0.33664189     0.32000
H221        H  0.34015093  0.98332212  0.23397438     0.30900
H222        H  0.39761072  0.00821818  0.19829701     0.32600
H223        H  0.50271739  0.09341658  0.29958785     0.31500
H224        H  0.29372947  0.99578460  0.37286547     0.35500
H225        H  0.33203548  0.05650438  0.35207540     0.28300
H226        H  0.42460687  0.90479423  0.39516175     0.32500
H227        H  0.49772713  0.00984614  0.36736920     0.35400
H228        H  0.34944851  0.95556781  0.23356962     0.28000
H229        H  0.33408492  0.05930321  0.40149278     0.40800
H230        H  0.34934618  0.00289166  0.51404744     0.30900
H231        H  0.30855972  0.92892547  0.46070522     0.38500
H232        H  0.48185389  0.05796121  0.28045572     0.30400
H233        H  0.44899773  0.03666288  0.53443404     0.30400
H234        H  0.45816730  0.93698842  0.38523702     0.30700
Zr235      Zr  0.47410063  0.95240128  0.12779621     2.17500
O236        O  0.45214899  0.98971275  0.12316685    -0.51700
O237        O  0.52467012  0.00773441  0.13014383    -0.74900
O238        O  0.45166427  0.95818685  0.19785587    -0.81700
O239        O  0.46373999  0.93054774  0.00490271    -0.83400
O240        O  0.45438943  0.92514093  0.24872062    -0.79000
O241        O  0.45214996  0.95682648  0.05717300    -0.90700
O242        O  0.56711016  0.99884067  0.14319929    -0.76600
O243        O  0.50571009  0.94215430  0.17888601    -0.86100
O244        O  0.51677484  0.95039232  0.08807757    -0.85800
O245        O  0.43705943  0.90034208  0.16147053    -0.72600
O246        O  0.44870364  0.90724487  0.07843167    -0.84700
Zr247      Zr  0.48623009  0.84536227  0.12376543     2.26400
Zr248      Zr  0.46946451  0.88948227  0.21148581     2.06300
Zr249      Zr  0.49147263  0.90463307  0.03944962     2.10000
Zr250      Zr  0.54835477  0.94073667  0.13943010     1.78800
O251        O  0.47943673  0.89453150  0.96380923    -0.93500
O252        O  0.57606296  0.95619879  0.20807924    -0.41300
O253        O  0.52440545  0.89593282  0.08959860    -0.77900
O254        O  0.51370502  0.88897230  0.17431837    -0.96600
O255        O  0.44292361  0.84589897  0.16169367    -0.89900
O256        O  0.45405090  0.85410437  0.07250963    -0.92800
C257        C  0.55547482  0.01806476  0.13730098     1.01000
C258        C  0.45137603  0.94800820  0.01783289     1.13900
C259        C  0.44741448  0.94695555  0.23650242     1.04700
O260        O  0.50880554  0.90951618  0.26997767    -0.94900
O261        O  0.46371242  0.83754148  0.23941850    -0.90700
O262        O  0.47385731  0.81177514  0.18562024    -0.83800
C263        C  0.46586550  0.81317475  0.22398946     1.11300
O264        O  0.36787839  0.86973824  0.10931597    -0.96900
Zr265      Zr  0.41173046  0.85622435  0.11120342     1.88900
O266        O  0.43946727  0.79222187  0.10513711    -0.73600
O267        O  0.42068881  0.85885210  0.25568820    -0.52800
O268        O  0.37077156  0.82716148  0.16622305    -0.97500
O269        O  0.38165877  0.84468213  0.04434770    -0.54700
O270        O  0.39508435  0.79924643  0.09705438    -0.74100
C271        C  0.40897205  0.78165672  0.09694778     0.98300
O272        O  0.52861241  0.83051117  0.13543555    -0.62900
O273        O  0.54625924  0.94398081  0.01320665    -0.57700
O274        O  0.50041615  0.82736290  0.06115719    -0.94400
O275        O  0.49369455  0.85675997  0.00907352    -0.92800
O276        O  0.59273434  0.97115170  0.08876700    -0.93200
O277        O  0.59233109  0.92744403  0.14106909    -0.91900
C278        C  0.49745906  0.83269082  0.02233568     1.17100
H279        H  0.52998310  0.97064245  0.07270769     0.33100
H280        H  0.52663709  0.88401372  0.19366747     0.43900
H281        H  0.44423946  0.83688424  0.05145363     0.37400
H282        H  0.41924407  0.90096172  0.17593069     0.33900
H283        H  0.59508023  0.97861106  0.20376094     0.25700
H284        H  0.42690812  0.86877498  0.28436949     0.31600
H285        H  0.37640097  0.81108505  0.17813897     0.37600
H286        H  0.61178319  0.98699615  0.10610540     0.32000
H287        H  0.55307374  0.93623375  0.49138430     0.30900
H288        H  0.50171129  0.91611505  0.44762112     0.32600
H289        H  0.38917305  0.83191660  0.02738297     0.31500
H290        H  0.58080351  0.90311328  0.14166821     0.35500
H291        H  0.54763480  0.84631071  0.11815621     0.28300
H292        H  0.46408170  0.00676302  0.14510957     0.32500
H293        H  0.37665705  0.89071719  0.12512212     0.35400
H294        H  0.54264090  0.95786734  0.99273020     0.28000
H295        H  0.53601822  0.83688462  0.16514190     0.40800
H296        H  0.49607889  0.91014569  0.29467727     0.30900
H297        H  0.56097376  0.95953071  0.22668007     0.38500
H298        H  0.39133395  0.86623479  0.02977696     0.30400
H299        H  0.40437041  0.86469085  0.24512873     0.30400
H300        H  0.42919095  0.97695098  0.13364512     0.30700
C301        C  0.60822575  0.31558973  0.37688812     0.02800
C302        C  0.63739996  0.31598783  0.36640758    -0.13400
C303        C  0.63697437  0.28663875  0.35718112     0.00300
C304        C  0.60736355  0.25670389  0.35983889    -0.11900
C305        C  0.57824546  0.25622250  0.37116667     0.02800
C306        C  0.57845071  0.28566790  0.37804730    -0.11300
H307        H  0.66057127  0.33909956  0.36641421     0.08400
H308        H  0.60716325  0.23380646  0.35431813     0.05900
H309        H  0.55553964  0.28518577  0.38461498     0.05800
C310        C  0.27704052  0.59137807  0.08559322     0.02800
C311        C  0.30643315  0.62115432  0.07926313    -0.13400
C312        C  0.30564475  0.65007859  0.07155337     0.00300
C313        C  0.27534797  0.64910794  0.07006015    -0.11900
C314        C  0.24601376  0.61925512  0.07488175     0.02800
C315        C  0.24678921  0.59028814  0.08240228    -0.11300
H316        H  0.32993760  0.62211158  0.08239177     0.08400
H317        H  0.27462669  0.67177671  0.06754958     0.05900
H318        H  0.22406455  0.56740283  0.08820197     0.05800
Zr319      Zr  0.41244392  0.42343989  0.12937972     2.17500
O320        O  0.47191175  0.44553311  0.12691460    -0.51700
O321        O  0.41695204  0.37292325  0.12916575    -0.74900
O322        O  0.43900870  0.44488843  0.20019936    -0.81700
O323        O  0.40370218  0.43629303  0.00734005    -0.83400
O324        O  0.40298996  0.44278893  0.25035480    -0.79000
O325        O  0.44090494  0.44708590  0.06033843    -0.90700
O326        O  0.36556530  0.32915113  0.13851056    -0.76600
O327        O  0.36982928  0.39142233  0.17950122    -0.86100
O328        O  0.36861118  0.38087290  0.08842008    -0.85800
O329        O  0.39682851  0.46010262  0.16307773    -0.72600
O330        O  0.39340029  0.44887972  0.07965129    -0.84700
Zr331      Zr  0.29346483  0.41075480  0.12136678     2.26400
Zr332      Zr  0.35256874  0.42722175  0.21165758     2.06300
Zr333      Zr  0.34916959  0.40656448  0.03922042     2.10000
Zr334      Zr  0.32657978  0.34878102  0.13872909     1.78800
O335        O  0.35636104  0.42050676  0.96402693    -0.93500
O336        O  0.31664503  0.31889715  0.20540770    -0.41300
O337        O  0.30667283  0.37305347  0.08800439    -0.77900
O338        O  0.30884206  0.38321720  0.17272328    -0.96600
O339        O  0.33663221  0.45385373  0.16091123    -0.89900
O340        O  0.33518192  0.44369995  0.07165023    -0.92800
C341        C  0.39667806  0.34175705  0.13326211     1.01000
C342        C  0.43340350  0.44867662  0.02097595     1.13900
C343        C  0.43178842  0.44931401  0.23859023     1.04700
O344        O  0.33459343  0.38986316  0.27210065    -0.94900
O345        O  0.30387567  0.42998887  0.23720771    -0.90700
O346        O  0.26753138  0.41699951  0.18270144    -0.83800
C347        C  0.27646242  0.42537592  0.22107632     1.11300
O348        O  0.43811130  0.52250889  0.10079633    -0.96900
Zr349      Zr  0.37923232  0.48568026  0.11186657     1.88900
O350        O  0.28808388  0.45899282  0.11070856    -0.73600
O351        O  0.36906502  0.47649443  0.25421599    -0.52800
O352        O  0.40034419  0.53104595  0.16252944    -0.97500
O353        O  0.38956666  0.51435474  0.04413493    -0.54700
O354        O  0.33952753  0.50404891  0.11100079    -0.74100
C355        C  0.30803758  0.49011819  0.10925078     0.98300
O356        O  0.23618774  0.36647247  0.12520162    -0.62900
O357        O  0.33534658  0.35286028  0.01081366    -0.57700
O358        O  0.26405995  0.40078014  0.05634510    -0.94400
O359        O  0.29913188  0.40199176  0.00591492    -0.92800
O360        O  0.30666324  0.30615070  0.08429943    -0.93200
O361        O  0.26958242  0.30575907  0.14964469    -0.91900
C362        C  0.27208709  0.40062256  0.01775277     1.17100
H363        H  0.37591498  0.36800818  0.07280325     0.33100
H364        H  0.29048150  0.37006958  0.19130412     0.43900
H365        H  0.32754683  0.45365694  0.05113045     0.37400
H366        H  0.41513273  0.47793609  0.17782647     0.33900
H367        H  0.32097929  0.30072939  0.19917662     0.25700
H368        H  0.37043548  0.47007728  0.28377338     0.31600
H369        H  0.38294103  0.52391935  0.18440620     0.37600
H370        H  0.30895177  0.28809484  0.09697705     0.32000
H371        H  0.31549191  0.34908793  0.49465750     0.30900
H372        H  0.34382148  0.39952527  0.44885137     0.32600
H373        H  0.36804945  0.51149142  0.03508286     0.31500
H374        H  0.25661234  0.31163551  0.13040769     0.35500
H375        H  0.23468248  0.34944585  0.10526266     0.28300
H376        H  0.47656388  0.43314720  0.14863848     0.32500
H377        H  0.44103651  0.54480446  0.09766559     0.35400
H378        H  0.35438851  0.35710427  0.99281995     0.28000
H379        H  0.23390726  0.35648200  0.15357994     0.40800
H380        H  0.31044939  0.37584818  0.26848159     0.30900
H381        H  0.33496935  0.33390154  0.22429906     0.38500
H382        H  0.39381147  0.50068055  0.02401750     0.30400
H383        H  0.39213874  0.49217903  0.24608365     0.30400
H384        H  0.48188853  0.46822074  0.13826718     0.30700
Zr385      Zr  0.48104301  0.49025361  0.37941395     2.17500
O386        O  0.42120529  0.46492983  0.37546467    -0.51700
O387        O  0.47732143  0.54149208  0.37767314    -0.74900
O388        O  0.45420072  0.47227154  0.45106233    -0.81700
O389        O  0.48750307  0.47166158  0.25765038    -0.83400
O390        O  0.49141923  0.47931289  0.50258531    -0.79000
O391        O  0.45206458  0.46768573  0.30993364    -0.90700
O392        O  0.52963009  0.58445165  0.37691358    -0.76600
O393        O  0.52579281  0.52889439  0.42317683    -0.86100
O394        O  0.52373433  0.52564895  0.33109124    -0.85800
O395        O  0.49831980  0.45855873  0.42260037    -0.72600
O396        O  0.49671233  0.45721921  0.33740255    -0.84700
Zr397      Zr  0.59885655  0.50119197  0.37743915     2.26400
Zr398      Zr  0.54367309  0.49786914  0.46612151     2.06300
Zr399      Zr  0.54075837  0.49302908  0.29054350     2.10000
Zr400      Zr  0.56774957  0.56436634  0.37449976     1.78800
O401        O  0.52982869  0.45474420  0.23214438    -0.93500
O402        O  0.58797011  0.60523891  0.43116916    -0.41300
O403        O  0.58497375  0.53316730  0.33239054    -0.77900
O404        O  0.58603150  0.53549481  0.41967907    -0.96600
O405        O  0.55696669  0.46425904  0.42420605    -0.89900
O406        O  0.55593156  0.46159111  0.33392182    -0.92800
C407        C  0.49842424  0.57271308  0.37753849     1.01000
C408        C  0.45868555  0.46373632  0.27096534     1.13900
C409        C  0.46192543  0.46992622  0.49013473     1.04700
O410        O  0.56047840  0.54550000  0.51195666    -0.94900
O411        O  0.59454332  0.49975808  0.49432320    -0.90700
O412        O  0.62695786  0.50145085  0.43953802    -0.83800
C413        C  0.62043584  0.50029521  0.47880534     1.11300
O414        O  0.45422750  0.38701662  0.38338128    -0.96900
Zr415      Zr  0.51318030  0.42615039  0.38032857     1.88900
O416        O  0.60534911  0.45350364  0.38080426    -0.73600
O417        O  0.53758751  0.46435833  0.52840160    -0.52800
O418        O  0.49658907  0.38541578  0.43672574    -0.97500
O419        O  0.49780002  0.39053768  0.31810123    -0.54700
O420        O  0.55377000  0.40905924  0.38652122    -0.74100
C421        C  0.58523708  0.42263818  0.38485527     0.98300
O422        O  0.65509242  0.54753629  0.37841745    -0.62900
O423        O  0.55517442  0.53855603  0.24198901    -0.57700
O424        O  0.62596803  0.50229922  0.31344781    -0.94400
O425        O  0.59000048  0.49391294  0.26006754    -0.92800
O426        O  0.57691283  0.59693726  0.31040793    -0.93200
O427        O  0.62572900  0.60606931  0.36740517    -0.87500
C428        C  0.61756014  0.49774231  0.27454051     1.17100
H429        H  0.51595103  0.53658114  0.31231022     0.33100
H430        H  0.60508162  0.55100566  0.43583271     0.43900
H431        H  0.56305962  0.44911949  0.31707689     0.37400
H432        H  0.48087919  0.44183249  0.43956847     0.33900
H433        H  0.59110558  0.62564303  0.41760148     0.25700
H434        H  0.52644834  0.45780981  0.04616841     0.31600
H435        H  0.50585903  0.39851118  0.46296124     0.37600
H436        H  0.57642530  0.61680552  0.31987874     0.32000
H437        H  0.57929929  0.55289626  0.24540972     0.30900
H438        H  0.53108209  0.46709272  0.20606157     0.32600
H439        H  0.51860018  0.39236268  0.30781153     0.31500
H440        H  0.63319761  0.59997819  0.34131154     0.35500
H441        H  0.65548831  0.56233083  0.35575379     0.28300
H442        H  0.41568389  0.47883098  0.39338267     0.32500
H443        H  0.44367911  0.40051871  0.37878823     0.35400
H444        H  0.55245736  0.52881911  0.21333955     0.28000
H445        H  0.65708590  0.55965863  0.40499665     0.40800
H446        H  0.58462204  0.55909008  0.50798745     0.30900
H447        H  0.56881202  0.59833000  0.45019830     0.38500
H448        H  0.49194399  0.40192092  0.29626626     0.30400
H449        H  0.51665464  0.44339659  0.52417321     0.30400
H450        H  0.41221531  0.44377703  0.39088207     0.30700
C451        C  0.30379518  0.53644955  0.13717636    -0.06100
C452        C  0.29426444  0.51201323  0.10606851    -0.00200
C453        C  0.27462183  0.51104226  0.07128026    -0.08800
C454        C  0.26706124  0.53632106  0.06740300    -0.06100
C455        C  0.27841524  0.56183211  0.09727262    -0.00200
C456        C  0.29507926  0.56080651  0.13424692    -0.08700
C457        C  0.30507534  0.58533552  0.17049989     0.61700
H458        H  0.31857320  0.53672533  0.16385689     0.12400
H459        H  0.25396833  0.53751607  0.03970255     0.12400
C460        C  0.26383920  0.48496943  0.03697560     0.61900
F461        F  0.33857044  0.60730411  0.16830273    -0.23200
F462        F  0.29819266  0.56886462  0.20892664    -0.20600
F463        F  0.28834866  0.60263514  0.16980178    -0.20200
F464        F  0.24333559  0.45425833  0.05419277    -0.20300
F465        F  0.29125324  0.48571163  0.01964849    -0.20600
F466        F  0.24684514  0.48994942  0.00453939    -0.23300
C467        C  0.58951994  0.37897184  0.42146290    -0.06100
C468        C  0.59860020  0.40047934  0.38679119    -0.00200
C469        C  0.61587238  0.39712396  0.35215599    -0.08800
C470        C  0.62040793  0.36985622  0.35141694    -0.06100
C471        C  0.60857311  0.34664654  0.38427000    -0.00200
C472        C  0.59524308  0.35243788  0.42139394    -0.08700
C473        C  0.58688345  0.33096111  0.46068652     0.61700
H474        H  0.57693317  0.38244605  0.44810894     0.12400
H475        H  0.63140727  0.36530160  0.32390439     0.12400
C476        C  0.62704489  0.42057075  0.31468688     0.61900
F477        F  0.58845774  0.34853089  0.49680037    -0.23200
F478        F  0.60904810  0.31990869  0.46586993    -0.20600
F479        F  0.55534148  0.30427088  0.45737174    -0.20200
F480        F  0.64912742  0.45215255  0.32822488    -0.20300
F481        F  0.60000719  0.42002887  0.29623186    -0.20600
F482        F  0.64257051  0.41205011  0.28398506    -0.23300
C483        C  0.37419743  0.73655561  0.04768428    -0.06100
C484        C  0.38752644  0.74648476  0.08856075    -0.00200
C485        C  0.37645598  0.72364974  0.12231498    -0.08800
C486        C  0.35086010  0.69154891  0.11455696    -0.06100
C487        C  0.33610167  0.68211095  0.07442367    -0.00200
C488        C  0.34848958  0.70427244  0.03989179    -0.08700
C489        C  0.33461586  0.69371247  0.99537528     0.61700
H490        H  0.38324592  0.75461447  0.02238745     0.12400
H491        H  0.34103677  0.67391508  0.14031041     0.12400
C492        C  0.39072414  0.73373677  0.16666775     0.61900
F493        F  0.35197233  0.71822219  0.96592335    -0.23200
F494        F  0.30212446  0.68621416  0.99395527    -0.20600
F495        F  0.33638638  0.66624318  0.98360498    -0.20200
F496        F  0.38854299  0.76064231  0.17995195    -0.20300
F497        F  0.42342172  0.74185641  0.16619599    -0.20600
F498        F  0.37420100  0.70875894  0.19591668    -0.23300
C499        C  0.51604345  0.17239820  0.41142416    -0.06100
C500        C  0.49356456  0.16094949  0.37774629    -0.00200
C501        C  0.49664134  0.18216505  0.34409325    -0.08800
C502        C  0.52388081  0.21425221  0.34420130    -0.06100
C503        C  0.54769809  0.22472571  0.37648900    -0.00200
C504        C  0.54312683  0.20422018  0.41171279    -0.08700
C505        C  0.56716147  0.21526974  0.44875996     0.61700
H506        H  0.51351944  0.15540684  0.43617577     0.12400
H507        H  0.52790787  0.23070012  0.31788029     0.12400
C508        C  0.47306306  0.16990478  0.30670213     0.61900
F509        F  0.55557128  0.19255132  0.48154675    -0.23200
F510        F  0.57196776  0.24481591  0.46464903    -0.20600
F511        F  0.59698828  0.21912483  0.43559598    -0.20200
F512        F  0.44117335  0.15851015  0.32055630    -0.20300
F513        F  0.47490243  0.14456223  0.28694710    -0.20600
F514        F  0.48049331  0.19447386  0.27717395    -0.23300
C515        C  0.16050725  0.60516864  0.05651149    -0.06100
C516        C  0.15269289  0.60996234  0.09789070    -0.00200
C517        C  0.17679092  0.62170696  0.13021567    -0.08800
C518        C  0.20797425  0.62635575  0.12057904    -0.06100
C519        C  0.21497087  0.61911776  0.08008692    -0.00200
C520        C  0.19172339  0.60977993  0.04692110    -0.08700
C521        C  0.19971585  0.60388430  0.00226232     0.61700
H522        H  0.14139260  0.59602411  0.03242102     0.12400
H523        H  0.22666535  0.63408117  0.14508584     0.12400
C524        C  0.16892701  0.62760985  0.17494895     0.61900
F525        F  0.17508072  0.59881840  0.97375768    -0.23200
F526        F  0.20345457  0.57647426  0.00175640    -0.20600
F527        F  0.22869632  0.63097916  0.98881172    -0.20200
F528        F  0.14338301  0.59873094  0.19134589    -0.20300
F529        F  0.15973245  0.65136057  0.17409219    -0.20600
F530        F  0.19578316  0.63835218  0.20184302    -0.23300
C531        C  0.72257487  0.31003950  0.32067768    -0.06100
C532        C  0.73395288  0.30125656  0.35679298    -0.00200
C533        C  0.71139205  0.28216693  0.38912314    -0.08800
C534        C  0.67886079  0.27568851  0.38636602    -0.06100
C535        C  0.66845042  0.28727864  0.35227892    -0.00200
C536        C  0.68966262  0.30264091  0.31747029    -0.08700
C537        C  0.67743582  0.31083957  0.27728437     0.61700
H538        H  0.73994344  0.32371193  0.29565238     0.12400
H539        H  0.66178635  0.26332483  0.41215670     0.12400
C540        C  0.72219852  0.27117064  0.42804953     0.61900
F541        F  0.70015926  0.31988603  0.24470312    -0.23200
F542        F  0.67162659  0.33650603  0.28468696    -0.20600
F543        F  0.64848597  0.28350674  0.26404514    -0.20200
F544        F  0.74733362  0.29846681  0.44757941    -0.20300
F545        F  0.73312690  0.24988288  0.41638017    -0.20600
F546        F  0.69693273  0.25513095  0.45715796    -0.23300
C547        C  0.06573535  0.43109849  0.41397568    -0.06100
C548        C  0.04360245  0.41534325  0.38036080    -0.00200
C549        C  0.05547820  0.40802330  0.34292860    -0.08800
C550        C  0.08788026  0.41321577  0.34220638    -0.06100
C551        C  0.10964767  0.42693819  0.37688567    -0.00200
C552        C  0.09891843  0.43807064  0.41234849    -0.08700
C553        C  0.12243219  0.45845241  0.44758441     0.61700
H554        H  0.05665289  0.43733726  0.44203290     0.12400
H555        H  0.09621730  0.40594821  0.31436719     0.12400
C556        C  0.03411310  0.39549762  0.30337875     0.61900
F557        F  0.10935251  0.47344953  0.47245559    -0.23200
F558        F  0.15159702  0.48304290  0.43038778    -0.20600
F559        F  0.12890573  0.43863442  0.47349431    -0.20200
F560        F  0.02240062  0.41647390  0.29323390    -0.20300
F561        F  0.00778628  0.36430810  0.31036367    -0.20600
F562        F  0.05154388  0.39405346  0.26876997    -0.23300
C563        C  0.24323551  0.44583120  0.43489092    -0.06100
C564        C  0.20881255  0.42516498  0.43832365    -0.00200
C565        C  0.19644886  0.39730261  0.46504519    -0.08800
C566        C  0.21516565  0.38473998  0.99455689    -0.06100
C567        C  0.24941214  0.40214383  0.98609145    -0.00200
C568        C  0.26578890  0.43902524  0.45542390    -0.08700
C569        C  0.30240087  0.46043482  0.44602670     0.61700
H570        H  0.25242065  0.46660589  0.41342882     0.12400
H571        H  0.20616211  0.36665082  0.01979745     0.12400
C572        C  0.15985513  0.37252632  0.46676265     0.61900
F573        F  0.30861460  0.48503644  0.41703308    -0.23200
F574        F  0.31416902  0.44119879  0.42892735    -0.20600
F575        F  0.31965250  0.47534742  0.48268812    -0.20200
F576        F  0.14852072  0.35996628  0.42656518    -0.20300
F577        F  0.14298656  0.38765406  0.48152058    -0.20600
F578        F  0.14862573  0.34480493  0.00824289    -0.23300
C579        C  0.21943909  0.40518954  0.24560488    -0.06100
C580        C  0.25279437  0.43015871  0.24693374    -0.00200
C581        C  0.26131699  0.46056143  0.26651227    -0.08800
C582        C  0.23655684  0.46372247  0.28751363    -0.06100
C583        C  0.20394121  0.43741845  0.29018874    -0.00200
C584        C  0.19481717  0.40826801  0.26716488    -0.08700
C585        C  0.15936625  0.38021097  0.26680885     0.61700
H586        H  0.21294727  0.38277202  0.22834122     0.12400
H587        H  0.24325203  0.48564562  0.30608854     0.12400
C588        C  0.29642194  0.48924841  0.26641213     0.61900
F589        F  0.15541997  0.35428943  0.24162453    -0.23200
F590        F  0.13930187  0.39148635  0.25092312    -0.20600
F591        F  0.14930863  0.36839135  0.30751684    -0.20200
F592        F  0.30885076  0.49538680  0.22555596    -0.20300
F593        F  0.31580217  0.48183232  0.29196248    -0.20600
F594        F  0.29822891  0.51778627  0.28167482    -0.23300
C595        C  0.79941231  0.49609121  0.17535380    -0.06100
C596        C  0.78156265  0.48266790  0.13746662    -0.00200
C597        C  0.79449956  0.46928985  0.10763617    -0.08800
C598        C  0.82667244  0.47442435  0.11374975    -0.06100
C599        C  0.84557692  0.49082860  0.14964154    -0.00200
C600        C  0.83055958  0.49928801  0.18260484    -0.08700
C601        C  0.84569758  0.51071514  0.22638225     0.61700
H602        H  0.78902343  0.50438212  0.19987623     0.12400
H603        H  0.83794655  0.46711113  0.08926888     0.12400
C604        C  0.77464401  0.44928184  0.06977280     0.61900
F605        F  0.82356246  0.49025413  0.25673907    -0.23200
F606        F  0.85211912  0.54247385  0.23338202    -0.20600
F607        F  0.87453688  0.50987003  0.23175250    -0.20200
F608        F  0.77353075  0.46999177  0.03954144    -0.20300
F609        F  0.74299164  0.42643611  0.08233483    -0.20600
F610        F  0.78848289  0.43220511  0.05141059    -0.23300
C611        C  0.62696363  0.46567014  0.22022837    -0.06100
C612        C  0.64042147  0.49367214  0.24620002    -0.00200
C613        C  0.67536101  0.51340871  0.25008312    -0.08800
C614        C  0.69542692  0.50456446  0.22703933    -0.06100
C615        C  0.68178078  0.47683023  0.20083116    -0.00200
C616        C  0.64710710  0.45621252  0.19884265    -0.08700
C617        C  0.63066147  0.42469737  0.17292901     0.61700
H618        H  0.60039999  0.45009166  0.21824841     0.12400
H619        H  0.72197451  0.52041584  0.22720643     0.12400
C620        C  0.69174711  0.54431398  0.27721087     0.61900
F621        F  0.60538154  0.39989370  0.19614084    -0.23200
F622        F  0.65247155  0.41408782  0.16225972    -0.20600
F623        F  0.61773751  0.42983560  0.13613959    -0.20200
F624        F  0.68999088  0.53567388  0.31942376    -0.20300
F625        F  0.67636749  0.56262452  0.27123160    -0.20600
F626        F  0.72472787  0.56415084  0.26707708    -0.23300
C627        C  0.68945152  0.51944742  0.05662118    -0.06100
C628        C  0.69485564  0.49257309  0.05306409    -0.00200
C629        C  0.67512467  0.46677657  0.02467412    -0.08800
C630        C  0.64720594  0.46939917  0.50184983    -0.06100
C631        C  0.64471770  0.49792084  0.50616236    -0.00200
C632        C  0.66338704  0.52021557  0.03533417    -0.08700
C633        C  0.65703884  0.54851258  0.04284837     0.61700
H634        H  0.70398065  0.53845592  0.07963745     0.12400
H635        H  0.62909567  0.44935088  0.48250548     0.12400
C636        C  0.67282059  0.43434108  0.51968490     0.61900
F637        F  0.67984442  0.57170776  0.07051519    -0.23200
F638        F  0.62604155  0.53664249  0.06025726    -0.20600
F639        F  0.65878427  0.56402638  0.00482153    -0.20200
F640        F  0.67374675  0.42098830  0.05889052    -0.20300
F641        F  0.71177353  0.44763083  0.00803991    -0.20600
F642        F  0.65005082  0.41274802  0.49066272    -0.23300
C643        C  0.45771448  0.62587321  0.35777695    -0.06100
C644        C  0.47925244  0.65472489  0.38057349    -0.00200
C645        C  0.50550072  0.65509490  0.40393088    -0.08800
C646        C  0.50896214  0.62696677  0.40333078    -0.06100
C647        C  0.48805477  0.59838677  0.37992408    -0.00200
C648        C  0.46157127  0.59768489  0.35697547    -0.08700
C649        C  0.43805681  0.56793674  0.33078982     0.61700
H650        H  0.43772093  0.62562820  0.34022655     0.12400
H651        H  0.52882520  0.62725130  0.42126293     0.12400
C652        C  0.53080971  0.68511600  0.42868969     0.61900
F653        F  0.41524506  0.57308471  0.30924266    -0.23200
F654        F  0.42095857  0.54106157  0.35711529    -0.20600
F655        F  0.45551384  0.56105210  0.30113464    -0.20200
F656        F  0.51612541  0.68968735  0.46407603    -0.20300
F657        F  0.54384096  0.71284431  0.40324494    -0.20600
F658        F  0.55690177  0.68162643  0.44273992    -0.23300
C659        C  0.51320972  0.79123912  0.42872054    -0.06100
C660        C  0.49106682  0.75855637  0.44109014    -0.00200
C661        C  0.47308321  0.75245553  0.47903867    -0.08800
C662        C  0.47721530  0.77949990  0.50298527    -0.06100
C663        C  0.49358136  0.80657808  0.99218267    -0.00200
C664        C  0.51671137  0.81837070  0.45212828    -0.08700
C665        C  0.53969757  0.85316597  0.43684292     0.61700
H666        H  0.52622947  0.79528977  0.39892364     0.12400
H667        H  0.45706486  0.81204983  0.95788572     0.12400
C668        C  0.44823255  0.71762159  0.49255545     0.61900
F669        F  0.55739528  0.85366016  0.40140712    -0.23200
F670        F  0.51569366  0.78136220  0.07146718    -0.20600
F671        F  0.52154459  0.86795953  0.42617272    -0.20200
F672        F  0.46364660  0.69917365  0.49597612    -0.20300
F673        F  0.42326491  0.70331993  0.46267840    -0.20600
F674        F  0.43417475  0.71688993  0.53144204    -0.23300
C675        C  0.43097212  0.74353208  0.30609781    -0.06100
C676        C  0.45187184  0.73039312  0.30002757    -0.00200
C677        C  0.47385123  0.74143507  0.26544567    -0.08800
C678        C  0.47713469  0.76814991  0.24135336    -0.06100
C679        C  0.45932668  0.78431721  0.25091551    -0.00200
C680        C  0.43473061  0.77084283  0.28287824    -0.08700
C681        C  0.41341994  0.78567388  0.29410247     0.61700
H682        H  0.41427164  0.73468132  0.33291919     0.12400
H683        H  0.49504561  0.77764267  0.21591579     0.12400
C684        C  0.49497339  0.72617588  0.25558358     0.61900
F685        F  0.38867035  0.76618475  0.32243745    -0.23200
F686        F  0.39857069  0.78900611  0.25799970    -0.20600
F687        F  0.43269685  0.81613811  0.31278912    -0.20200
F688        F  0.47488054  0.69256994  0.25030847    -0.20300
F689        F  0.51685608  0.73211197  0.28848071    -0.20600
F690        F  0.51299397  0.73882285  0.21869444    -0.23300
C691        C  0.60465666  0.06317846  0.17159604    -0.06100
C692        C  0.58067639  0.05413569  0.13975275    -0.00200
C693        C  0.58566745  0.07763746  0.10796619    -0.08800
C694        C  0.61510297  0.10882511  0.10869354    -0.06100
C695        C  0.64016648  0.11712368  0.13931113    -0.00200
C696        C  0.63460238  0.09338017  0.17148928    -0.08700
C697        C  0.66054772  0.09802809  0.20428884     0.61700
H698        H  0.60031460  0.04510812  0.19586517     0.12400
H699        H  0.61900678  0.12684675  0.08458403     0.12400
C700        C  0.56066625  0.06957927  0.07272791     0.61900
F701        F  0.65131332  0.06970099  0.22759827    -0.23200
F702        F  0.66541631  0.12246783  0.23278810    -0.20600
F703        F  0.68983469  0.10603734  0.18411343    -0.20200
F704        F  0.53139380  0.06466895  0.08986663    -0.20300
F705        F  0.55504888  0.04137866  0.05163636    -0.20600
F706        F  0.57140689  0.09473696  0.04320120    -0.23300
C707        C  0.76439832  0.25134602  0.25659990    -0.06100
C708        C  0.79652520  0.25708767  0.24982428    -0.00200
C709        C  0.80182038  0.23702725  0.22138026    -0.08800
C710        C  0.77469790  0.21282382  0.19851213    -0.06100
C711        C  0.74283589  0.20820218  0.20374589    -0.00200
C712        C  0.73729231  0.22706896  0.23394119    -0.08700
C713        C  0.70300310  0.22176435  0.24155905     0.61700
H714        H  0.76076804  0.26624929  0.27988579     0.12400
H715        H  0.77844142  0.19852172  0.17442856     0.12400
C716        C  0.83587281  0.24150244  0.21503743     0.61900
F717        F  0.70294053  0.24260472  0.27263017    -0.23200
F718        F  0.68248261  0.18970768  0.25465560    -0.20600
F719        F  0.69059401  0.22733711  0.20458629    -0.20200
F720        F  0.84834531  0.23842613  0.25351697    -0.20300
F721        F  0.85660208  0.27242476  0.19848589    -0.20600
F722        F  0.83532480  0.21829900  0.18736357    -0.23300
C723        C  0.73647268  0.24881255  0.06031974    -0.06100
C724        C  0.72618477  0.21508207  0.05692101    -0.00200
C725        C  0.74213472  0.20505057  0.02755847    -0.08800
C726        C  0.76942863  0.22928108  0.00492404    -0.06100
C727        C  0.77570850  0.26678199  0.50968736    -0.00200
C728        C  0.76478331  0.27323703  0.03942377    -0.08700
C729        C  0.77701250  0.30930964  0.04893108     0.61700
H730        H  0.72435238  0.25607343  0.08367111     0.12400
H731        H  0.77422266  0.22443471  0.48106176     0.12400
C732        C  0.73181788  0.16904125  0.02255113     0.61900
F733        F  0.75458116  0.31338240  0.07292992    -0.23200
F734        F  0.77917030  0.33210138  0.51111781    -0.20600
F735        F  0.80617879  0.32227126  0.07157040    -0.20200
F736        F  0.69820018  0.15077546  0.01551984    -0.20300
F737        F  0.73954667  0.15792626  0.05905215    -0.20600
F738        F  0.74750119  0.16397498  0.98859172    -0.23300
C739        C  0.28314339  0.84008438  0.34558072    -0.06100
C740        C  0.30387513  0.85226974  0.38107403    -0.00200
C741        C  0.29780477  0.83146193  0.41643288    -0.08800
C742        C  0.27152499  0.79847051  0.41440928    -0.06100
C743        C  0.25049689  0.78609119  0.37873525    -0.00200
C744        C  0.25635468  0.80761176  0.34370158    -0.08700
C745        C  0.23394857  0.79739923  0.30494285     0.61700
H746        H  0.28771192  0.85684901  0.31945286     0.12400
H747        H  0.26669948  0.78227517  0.44125704     0.12400
C748        C  0.31768854  0.84492072  0.45693727     0.61900
F749        F  0.24043257  0.82407852  0.27955461    -0.23200
F750        F  0.20133497  0.78288338  0.31738002    -0.20600
F751        F  0.23864094  0.77558356  0.28058622    -0.20200
F752        F  0.31291098  0.86966668  0.47297942    -0.20300
F753        F  0.35084590  0.85765509  0.44856638    -0.20600
F754        F  0.30843686  0.82086278  0.48773652    -0.23300
C755        C  0.12026434  0.68788005  0.44164965    -0.06100
C756        C  0.15250278  0.69476837  0.45140968    -0.00200
C757        C  0.15783685  0.68027369  0.48749320    -0.08800
C758        C  0.12715701  0.66788162  0.01119615    -0.06100
C759        C  0.09443684  0.65228239  0.99539109    -0.00200
C760        C  0.09278971  0.66558927  0.46581833    -0.08700
C761        C  0.05841169  0.65856276  0.45451119     0.61700
H762        H  0.11654839  0.69866216  0.41325582     0.12400
H763        H  0.13131088  0.66226122  0.04316496     0.12400
C764        C  0.18929124  0.70309507  0.00351084     0.61900
F765        F  0.05888520  0.67868963  0.42212237    -0.23200
F766        F  0.04386123  0.66375703  0.48963985    -0.20600
F767        F  0.03948883  0.62619466  0.44145956    -0.20200
F768        F  0.20552809  0.73707969  0.00149447    -0.20300
F769        F  0.20284511  0.67373100  0.46665444    -0.20600
F770        F  0.18931483  0.69420070  0.04542601    -0.23300
C771        C  0.15481920  0.69746943  0.28248669    -0.06100
C772        C  0.16934471  0.68314729  0.30667385    -0.00200
C773        C  0.15803206  0.64908731  0.30239640    -0.08800
C774        C  0.13060578  0.62989504  0.27626906    -0.06100
C775        C  0.11443493  0.64385553  0.25457034    -0.00200
C776        C  0.12708293  0.67838302  0.25698689    -0.08700
C777        C  0.11039808  0.69500423  0.23500460     0.61700
H778        H  0.16357872  0.72344803  0.28670425     0.12400
H779        H  0.12115162  0.60366215  0.27337937     0.12400
C780        C  0.17381809  0.63278666  0.32700098     0.61900
F781        F  0.12185734  0.72665913  0.24995278    -0.23200
F782        F  0.07673614  0.67734801  0.24200638    -0.20600
F783        F  0.11668886  0.69698124  0.19193505    -0.20200
F784        F  0.16316427  0.62798358  0.36866994    -0.20300
F785        F  0.20777870  0.65243807  0.32617449    -0.20600
F786        F  0.16573462  0.60253683  0.30963622    -0.23300
C787        C  0.40421376  0.29917120  0.16914698    -0.06100
C788        C  0.40880455  0.31775016  0.13240682    -0.00200
C789        C  0.41892745  0.30889507  0.09470995    -0.08800
C790        C  0.42261474  0.28072792  0.09479814    -0.06100
C791        C  0.41646528  0.26080683  0.13117484    -0.00200
C792        C  0.40800420  0.27111594  0.16973190    -0.08700
C793        C  0.40174717  0.25264021  0.21153219     0.61700
H794        H  0.39632647  0.30639087  0.19746804     0.12400
H795        H  0.42970568  0.27370723  0.06568229     0.12400
C796        C  0.42461349  0.32841339  0.05410690     0.61900
F797        F  0.39387505  0.26734617  0.24405953    -0.23200
F798        F  0.42977162  0.25207748  0.22400417    -0.20600
F799        F  0.37555083  0.22091046  0.20698761    -0.20200
F800        F  0.44869477  0.36082361  0.06083553    -0.20300
F801        F  0.39570096  0.32720765  0.04181361    -0.20600
F802        F  0.43486690  0.31616490  0.02110667    -0.23300
C803        C  0.42550179  0.11808540  0.21651324    -0.06100
C804        C  0.39703064  0.10479924  0.24155633    -0.00200
C805        C  0.37808465  0.12088100  0.24280872    -0.08800
C806        C  0.38777789  0.14892696  0.21739260    -0.06100
C807        C  0.41635881  0.16214113  0.19274130    -0.00200
C808        C  0.43647665  0.14746189  0.19394403    -0.08700
C809        C  0.47004280  0.16220678  0.17269305     0.61700
H810        H  0.44071269  0.10668361  0.21694770     0.12400
H811        H  0.37253646  0.16020289  0.21556481     0.12400
C812        C  0.34773154  0.10880626  0.27051135     0.61900
F813        F  0.49313785  0.16449728  0.20195728    -0.23200
F814        F  0.48098186  0.19352020  0.15703969    -0.20600
F815        F  0.46858769  0.14201183  0.13978398    -0.20200
F816        F  0.35734439  0.11755675  0.31220838    -0.20300
F817        F  0.32812118  0.07498166  0.26738336    -0.20600
F818        F  0.32883704  0.12261987  0.25866557    -0.23300
C819        C  0.44991707  0.16698050  0.04336062    -0.06100
C820        C  0.42499092  0.17539378  0.04376709    -0.00200
C821        C  0.39640541  0.15692063  0.01898145    -0.08800
C822        C  0.39379784  0.13273113  0.49350694    -0.06100
C823        C  0.41492354  0.11951231  0.49800727    -0.00200
C824        C  0.44510567  0.13778260  0.02436986    -0.08700
C825        C  0.47071444  0.12738234  0.03048142     0.61700
H826        H  0.47142172  0.18117803  0.06319103     0.12400
H827        H  0.37203812  0.11981013  0.47378324     0.12400
C828        C  0.36937550  0.16571267  0.01746776     0.61900
F829        F  0.49913944  0.15188773  0.04944958    -0.23200
F830        F  0.47936796  0.11997854  0.99182203    -0.20600
F831        F  0.45780892  0.09993199  0.05634855    -0.20200
F832        F  0.39029820  0.20546671  0.50124354    -0.20300
F833        F  0.35555260  0.16203120  0.05730071    -0.20600
F834        F  0.35012211  0.15504926  0.48268038    -0.23300
C835        C  0.41676203  0.22924039  0.62574484     0.79900
N836        N  0.41686831  0.21206442  0.66086128    -0.78400
C837        C  0.42101533  0.18549239  0.65685414     0.82300
N838        N  0.42435833  0.17591886  0.61804293    -0.78400
C839        C  0.42483574  0.19227502  0.58289144     0.82400
N840        N  0.42079667  0.21909110  0.58632703    -0.80100
C841        C  0.22167813  0.75359669  0.87746526     0.79900
N842        N  0.21397268  0.73464547  0.84158315    -0.78400
C843        C  0.18802484  0.70327138  0.84140550     0.82300
N844        N  0.16936832  0.69148618  0.87632268    -0.78400
C845        C  0.17540787  0.70968753  0.91162615     0.82400
N846        N  0.20180303  0.74103305  0.91256235    -0.80100
C847        C  0.66876920  0.15470192  0.63692681     0.79900
N848        N  0.68938487  0.16817571  0.67112392    -0.78400
C849        C  0.71807532  0.19732681  0.66745379     0.82300
N850        N  0.72573144  0.21325995  0.63032966    -0.78400
C851        C  0.70604328  0.20116375  0.59624681     0.82400
N852        N  0.67749344  0.17142344  0.59895137    -0.80100
C853        C  0.47449473  0.68319047  0.87476461     0.79900
N854        N  0.46952938  0.69222418  0.83522169    -0.78400
C855        C  0.46589728  0.71916243  0.83111304     0.82300
N856        N  0.46759045  0.73666219  0.86561750    -0.78400
C857        C  0.47169576  0.72813057  0.90473241     0.82400
N858        N  0.47572116  0.70145177  0.90954883    -0.80100
C859        C  0.74627946  0.47918425  0.62853528     0.79900
N860        N  0.73637763  0.48456334  0.58980654    -0.78400
C861        C  0.70768482  0.48518452  0.58655460     0.82300
N862        N  0.68935745  0.48067189  0.62114524    -0.78400
C863        C  0.69827898  0.47550652  0.65939454     0.82400
N864        N  0.72732782  0.47559106  0.66367953    -0.80100
C865        C  0.14242325  0.42543244  0.87644258     0.79900
N866        N  0.15573198  0.42768366  0.83697180    -0.78400
C867        C  0.18304092  0.42498657  0.83259070     0.82300
N868        N  0.19690252  0.42017632  0.86679980    -0.78400
C869        C  0.18510505  0.41843395  0.90604098     0.82400
N870        N  0.15739277  0.42083216  0.91134314    -0.80100
Zr871      Zr  0.94414956  0.42104510  0.88524908     2.17500
O872        O  0.97946278  0.48065969  0.88022749    -0.51700
O873        O  0.99932193  0.42579028  0.88628605    -0.74900
O874        O  0.94978247  0.44956731  0.95469251    -0.81700
O875        O  0.92253253  0.41047261  0.76353219    -0.83400
O876        O  0.91734298  0.41386137  0.00605286    -0.79000
O877        O  0.94997207  0.44836750  0.81537501    -0.90700
O878        O  0.99212182  0.37426617  0.89064459    -0.76600
O879        O  0.93495439  0.37983416  0.93662709    -0.86100
O880        O  0.94229765  0.37643904  0.84547142    -0.85800
O881        O  0.89215676  0.40513487  0.91964184    -0.72600
O882        O  0.89890113  0.40130555  0.83607004    -0.84700
Zr883      Zr  0.83885481  0.30135828  0.88279022     2.26400
Zr884      Zr  0.88250787  0.36259286  0.97005945     2.06300
Zr885      Zr  0.89637611  0.35616538  0.79708945     2.10000
Zr886      Zr  0.93394622  0.33586501  0.89761943     1.78800
O887        O  0.88521181  0.35883255  0.72194910    -0.93500
O888        O  0.96126222  0.33595444  0.96367602    -0.41300
O889        O  0.88922664  0.31480073  0.84732919    -0.77900
O890        O  0.88252913  0.31826240  0.93314473    -0.96600
O891        O  0.83856496  0.34494187  0.92067802    -0.89900
O892        O  0.84589769  0.34169732  0.83171105    -0.92800
C893        C  0.01031472  0.40547998  0.88708612     1.01000
C894        C  0.94069839  0.44033689  0.77622221     1.13900
C895        C  0.93863776  0.44265559  0.99331006     1.04700
O896        O  0.90629330  0.34690323  0.02796561    -0.94900
O897        O  0.83321264  0.31412853  0.99963397    -0.90700
O898        O  0.80823369  0.27745752  0.94608266    -0.83800
C899        C  0.80988839  0.28662333  0.98459307     1.11300
O900        O  0.86454351  0.44394109  0.86216093    -0.96900
Zr901      Zr  0.84797329  0.38605026  0.86978031     1.88900
O902        O  0.78450419  0.29336717  0.87092031    -0.73600
O903        O  0.85089092  0.37942454  0.01445762    -0.52800
O904        O  0.82328897  0.40738541  0.91919814    -0.97500
O905        O  0.83255653  0.39592091  0.79958766    -0.54700
O906        O  0.79026312  0.34433904  0.86556579    -0.74100
C907        C  0.77304275  0.31278844  0.86587579     0.98300
O908        O  0.82508292  0.24413193  0.89065718    -0.62900
O909        O  0.93438631  0.34068955  0.76631743    -0.57700
O910        O  0.81882340  0.27123109  0.81861663    -0.94400
O911        O  0.84794870  0.30720438  0.76597933    -0.92800
O912        O  0.95168064  0.30848748  0.84730286    -0.93200
O913        O  0.91963735  0.28056525  0.91988677    -0.91900
C914        C  0.82376900  0.27976711  0.77975045     1.17100
H915        H  0.96211785  0.38355669  0.82909530     0.33100
H916        H  0.87788966  0.30057743  0.95264811     0.43900
H917        H  0.82772354  0.33384086  0.81199756     0.37400
H918        H  0.89246600  0.42354614  0.93373603     0.33900
H919        H  0.97875156  0.33116956  0.95506463     0.25700
H920        H  0.85990105  0.38301305  0.54480904     0.31600
H921        H  0.80549839  0.38769164  0.93343722     0.37600
H922        H  0.97208706  0.31069704  0.85982573     0.32000
H923        H  0.92091062  0.32320496  0.74551220     0.30900
H924        H  0.90499729  0.36197077  0.70658191     0.32600
H925        H  0.81166073  0.37568908  0.79237913     0.31500
H926        H  0.89698422  0.26622006  0.90905401     0.35500
H927        H  0.83881728  0.24097824  0.86940639     0.28300
H928        H  0.99608622  0.48696817  0.90309218     0.32500
H929        H  0.87916385  0.45156138  0.83700762     0.35400
H930        H  0.94962193  0.35982282  0.74876858     0.28000
H931        H  0.83465203  0.24318597  0.91830749     0.40800
H932        H  0.93026215  0.36274531  0.02639164     0.30900
H933        H  0.97337355  0.35921865  0.97307873     0.38500
H934        H  0.84900892  0.39569245  0.78009458     0.30400
H935        H  0.85606340  0.40134392  0.00379967     0.30400
H936        H  0.96544885  0.48987966  0.88905421     0.30700
Zr937      Zr  0.94672439  0.48896277  0.63617872     2.17500
O938        O  0.90846044  0.42986374  0.63103002    -0.51700
O939        O  0.89226526  0.48579433  0.63895587    -0.74900
O940        O  0.94047693  0.45992857  0.70530995    -0.81700
O941        O  0.96867235  0.49860310  0.51354351    -0.83400
O942        O  0.97347650  0.49605641  0.75609753    -0.79000
O943        O  0.94014123  0.46154554  0.56572073    -0.90700
O944        O  0.89999181  0.53675407  0.65181628    -0.76600
O945        O  0.95634895  0.53123197  0.68641940    -0.86100
O946        O  0.94951893  0.53333281  0.59511928    -0.85800
O947        O  0.99834154  0.50403224  0.67193408    -0.72600
O948        O  0.99188384  0.50724388  0.58720066    -0.84700
Zr949      Zr  0.05293408  0.60683672  0.63131308     2.26400
Zr950      Zr  0.00865857  0.54803927  0.72067004     2.06300
Zr951      Zr  0.99553450  0.55258596  0.54679970     2.10000
Zr952      Zr  0.95852109  0.57504959  0.64556078     1.78800
O953        O  0.00369825  0.54884383  0.47096995    -0.93500
O954        O  0.94424462  0.59002641  0.71304965    -0.41300
O955        O  0.00320829  0.59465042  0.59545467    -0.77900
O956        O  0.00971083  0.59203483  0.68170464    -0.96600
O957        O  0.05215407  0.56369868  0.67137384    -0.89900
O958        O  0.04519181  0.56539620  0.58191772    -0.92800
C959        C  0.88137074  0.50574496  0.64617107     1.01000
C960        C  0.94961296  0.46909764  0.52649342     1.13900
C961        C  0.95183076  0.46709208  0.74384821     1.04700
O962        O  0.98587820  0.56888628  0.77364730    -0.94900
O963        O  0.06249355  0.59471085  0.74508421    -0.90700
O964        O  0.08520515  0.63198672  0.69204808    -0.83800
C965        C  0.08531196  0.62242557  0.72965205     1.11300
O966        O  0.02676198  0.46363849  0.62251695    -0.96900
Zr967      Zr  0.04228525  0.52149231  0.62221316     1.88900
O968        O  0.10673603  0.61300722  0.61874999    -0.73600
O969        O  0.03726315  0.53691560  0.77741686    -0.52800
O970        O  0.07254162  0.50932410  0.67519456    -0.97500
O971        O  0.05414299  0.50404597  0.55481956    -0.54700
O972        O  0.09962419  0.56159939  0.61139131    -0.74100
C973        C  0.11738195  0.59305022  0.61173780     0.98300
O974        O  0.06162979  0.66248632  0.63674276    -0.62900
O975        O  0.95781953  0.56950412  0.51873028    -0.57700
O976        O  0.07651994  0.63651166  0.56838327    -0.94400
O977        O  0.04584691  0.60086583  0.51604624    -0.92800
O978        O  0.93001505  0.58899003  0.59194715    -0.93200
O979        O  0.97471554  0.63309400  0.64932629    -0.91900
C980        C  0.07117235  0.62778455  0.52966476     1.17100
H981        H  0.92930182  0.52614352  0.57947192     0.33100
H982        H  0.01481872  0.61028159  0.70045282     0.43900
H983        H  0.06311136  0.57233573  0.56207855     0.37400
H984        H  0.99788317  0.48579036  0.68665558     0.33900
H985        H  0.92676750  0.59523496  0.70603554     0.25700
H986        H  0.02521224  0.53571910  0.80378510     0.31600
H987        H  0.07290842  0.52183093  0.70071800     0.37600
H988        H  0.91515294  0.59425609  0.60816931     0.32000
H989        H  0.97139169  0.58566207  0.99142773     0.30900
H990        H  0.99343624  0.55350471  0.95399368     0.32600
H991        H  0.07650965  0.50712638  0.55838993     0.31500
H992        H  0.98860852  0.64316677  0.62393556     0.35500
H993        H  0.05091078  0.66532140  0.61125472     0.28300
H994        H  0.89146292  0.42487852  0.65295142     0.32500
H995        H  0.00238889  0.45159218  0.62423590     0.35400
H996        H  0.94091851  0.55005429  0.50298954     0.28000
H997        H  0.04740970  0.66155712  0.66053546     0.40800
H998        H  0.96518241  0.54927352  0.78295139     0.30900
H999        H  0.93287523  0.56920419  0.72927967     0.38500
H1000       H  0.05703226  0.52115613  0.53412140     0.30400
H1001       H  0.03295096  0.51424292  0.77262801     0.30400
H1002       H  0.92085946  0.41923837  0.64127969     0.30700
Zr1003     Zr  0.41066263  0.95583591  0.87738478     2.17500
O1004       O  0.43480428  0.92045000  0.87170089    -0.51700
O1005       O  0.35949976  0.90135493  0.88150055    -0.74900
O1006       O  0.43263085  0.94863039  0.94658797    -0.81700
O1007       O  0.42379724  0.97839563  0.75560268    -0.83400
O1008       O  0.42700381  0.97944688  0.99813354    -0.79000
O1009       O  0.43159954  0.94911987  0.80749890    -0.90700
O1010       O  0.31533342  0.90900980  0.88270018    -0.76600
O1011       O  0.37633787  0.96417584  0.92594470    -0.86100
O1012       O  0.37034648  0.95968404  0.83420898    -0.85800
O1013       O  0.44638560  0.00659013  0.91493936    -0.72600
O1014       O  0.43864027  0.00196182  0.83004935    -0.84700
Zr1015     Zr  0.39848056  0.06179910  0.87470865     2.26400
Zr1016     Zr  0.41111618  0.01523241  0.96276639     2.06300
Zr1017     Zr  0.39841381  0.00713334  0.78839669     2.10000
Zr1018     Zr  0.33589729  0.96735432  0.88313111     1.78800
O1019       O  0.41870439  0.02070904  0.71574992    -0.93500
O1020       O  0.30168156  0.94389203  0.94594001    -0.41300
O1021       O  0.36234187  0.01336113  0.83572869    -0.77900
O1022       O  0.36891320  0.01707943  0.92254146    -0.96600
O1023       O  0.44009723  0.05973232  0.91540962    -0.89900
O1024       O  0.43415889  0.05634943  0.82575707    -0.92800
C1025       C  0.32816913  0.89057328  0.88252882     1.01000
C1026       C  0.43384269  0.95896707  0.76849121     1.13900
C1027       C  0.43558870  0.95891074  0.98549229     1.04700
O1028       O  0.36629854  0.99074768  0.01392152    -0.94900
O1029       O  0.41530546  0.06684826  0.99020846    -0.90700
O1030       O  0.40161520  0.09077524  0.93746872    -0.83800
C1031       C  0.41028663  0.08969372  0.97541269     1.11300
O1032       O  0.51558653  0.03509307  0.86156053    -0.96900
Zr1033     Zr  0.47391925  0.05142206  0.86686378     1.88900
O1034       O  0.44649760  0.11571560  0.87309164    -0.73600
O1035       O  0.45193705  0.04241990  0.01896855    -0.52800
O1036       O  0.51833766  0.07716595  0.91877175    -0.97500
O1037       O  0.50367697  0.06841007  0.79969267    -0.54700
O1038       O  0.49120326  0.10884345  0.86991127    -0.74100
C1039       C  0.47748524  0.12644499  0.87207204     0.98300
O1040       O  0.35377589  0.07389168  0.88131667    -0.62900
O1041       O  0.34566075  0.97282941  0.75334690    -0.57700
O1042       O  0.39167242  0.08541438  0.81150108    -0.94400
O1043       O  0.39854778  0.05645725  0.75884928    -0.92800
O1044       O  0.29642506  0.94519774  0.82486462    -0.93200
O1045       O  0.29453664  0.98403849  0.89008625    -0.91900
C1046       C  0.39517907  0.08064698  0.77258570     1.17100
H1047       H  0.35789113  0.94001601  0.81736775     0.33100
H1048       H  0.35512524  0.02149218  0.94098952     0.43900
H1049       H  0.44538112  0.07514134  0.80722334     0.37400
H1050       H  0.46397983  0.00599884  0.93009104     0.33900
H1051       H  0.31146471  0.93232552  0.96102763     0.25700
H1052       H  0.41423532  0.01177367  0.55388237     0.31600
H1053       H  0.51097413  0.08824288  0.93913485     0.37600
H1054       H  0.27558619  0.92840782  0.83816668     0.32000
H1055       H  0.34241686  0.98832403  0.73544882     0.30900
H1056       H  0.39890525  0.00926321  0.69747113     0.32600
H1057       H  0.50280053  0.08819953  0.79089037     0.31500
H1058       H  0.29705964  0.99714375  0.86428359     0.35500
H1059       H  0.33780222  0.06051683  0.85890549     0.28300
H1060       H  0.42350318  0.90301712  0.89331633     0.32500
H1061       H  0.50415064  0.01328414  0.84749133     0.35400
H1062       H  0.34989448  0.95934900  0.73289882     0.28000
H1063       H  0.34236073  0.06327628  0.90810530     0.40800
H1064       H  0.35910129  0.96699540  0.01354352     0.30900
H1065       H  0.30678534  0.96299252  0.96431295     0.38500
H1066       H  0.48928272  0.05116390  0.77913205     0.30400
H1067       H  0.47106899  0.03998824  0.01114248     0.30400
H1068       H  0.45774625  0.93390805  0.88212839     0.30700
Zr1069     Zr  0.47446589  0.95380392  0.62736724     2.17500
O1070       O  0.44923302  0.98840105  0.62573521    -0.51700
O1071       O  0.52429965  0.00970148  0.63031101    -0.74900
O1072       O  0.45267008  0.95862866  0.69771066    -0.81700
O1073       O  0.46329006  0.93310872  0.50531354    -0.83400
O1074       O  0.45605912  0.92552912  0.74791976    -0.79000
O1075       O  0.45249771  0.95987852  0.55768587    -0.90700
O1076       O  0.56732489  0.00144273  0.64107159    -0.76600
O1077       O  0.50656773  0.94370102  0.67786298    -0.86100
O1078       O  0.51772287  0.95339214  0.58722053    -0.85800
O1079       O  0.43839325  0.90097487  0.66037493    -0.72600
O1080       O  0.44944812  0.90920401  0.57728437    -0.84700
Zr1081     Zr  0.48922068  0.84851094  0.62047236     2.26400
Zr1082     Zr  0.47156437  0.89048678  0.70978844     2.06300
Zr1083     Zr  0.49269120  0.90810690  0.53775937     2.10000
Zr1084     Zr  0.54972629  0.94368796  0.63805916     1.78800
O1085       O  0.48090834  0.90031120  0.46188424    -0.93500
O1086       O  0.57703383  0.96114860  0.70686906    -0.41300
O1087       O  0.52641957  0.89964755  0.58715270    -0.77900
O1088       O  0.51600378  0.89139146  0.67174573    -0.96600
O1089       O  0.44532401  0.84745135  0.65919048    -0.89900
O1090       O  0.45631706  0.85675844  0.57008281    -0.92800
C1091       C  0.55529809  0.02044195  0.63651687     1.01000
C1092       C  0.45110619  0.95067852  0.51843756     1.13900
C1093       C  0.44876227  0.94722164  0.73607373     1.04700
O1094       O  0.51336848  0.91223108  0.76535294    -0.94900
O1095       O  0.46922037  0.83936788  0.73602187    -0.90700
O1096       O  0.47968130  0.81466953  0.68092184    -0.83800
C1097       C  0.47265550  0.81594314  0.71965583     1.11300
O1098       O  0.37045973  0.87196276  0.60487555    -0.96900
Zr1099     Zr  0.41354630  0.85750059  0.60918618     1.88900
O1100       O  0.44332546  0.79498519  0.60158291    -0.73600
O1101       O  0.42472202  0.85945269  0.75693041    -0.52800
O1102       O  0.36979083  0.82748794  0.66072190    -0.97500
O1103       O  0.38645904  0.84406034  0.53989113    -0.54700
O1104       O  0.39804742  0.80067274  0.59774741    -0.74100
C1105       C  0.41245783  0.78363330  0.59548506     0.98300
O1106       O  0.53221094  0.83448933  0.63252772    -0.62900
O1107       O  0.54719675  0.94844983  0.51189346    -0.57700
O1108       O  0.50604645  0.83446655  0.55674828    -0.94400
O1109       O  0.49472772  0.86094000  0.50492502    -0.92800
O1110       O  0.59305638  0.96848338  0.58470978    -0.93200
O1111       O  0.59565128  0.93395109  0.64826238    -0.91900
C1112       C  0.50066741  0.83834674  0.51818903     1.17100
H1113       H  0.53061950  0.97386230  0.57217289     0.33100
H1114       H  0.52924088  0.88654184  0.69068039     0.43900
H1115       H  0.44671409  0.83945695  0.54912594     0.37400
H1116       H  0.42035706  0.90106544  0.67500238     0.33900
H1117       H  0.59788335  0.98182962  0.70105910     0.25700
H1118       H  0.43226058  0.86918320  0.78551593     0.31600
H1119       H  0.35626714  0.80512070  0.64867681     0.37600
H1120       H  0.60446726  0.99248619  0.59007285     0.32000
H1121       H  0.55274959  0.93072285  0.99550825     0.30900
H1122       H  0.49895958  0.91217912  0.94910838     0.32600
H1123       H  0.39598148  0.83255165  0.52411816     0.31500
H1124       H  0.58562280  0.90973640  0.64675685     0.35500
H1125       H  0.55087835  0.84993426  0.61447306     0.28300
H1126       H  0.46138755  0.00597265  0.64699935     0.32500
H1127       H  0.38035917  0.89257057  0.58811255     0.35400
H1128       H  0.54349622  0.96377107  0.49426962     0.28000
H1129       H  0.54022863  0.84184831  0.66182793     0.40800
H1130       H  0.50142875  0.90080339  0.79150925     0.30900
H1131       H  0.56362519  0.96824693  0.72316622     0.38500
H1132       H  0.39525410  0.86548736  0.52521231     0.30400
H1133       H  0.40798510  0.86537643  0.74854293     0.30400
H1134       H  0.42683028  0.97480719  0.63768648     0.30700
C1135       C  0.61228166  0.31605131  0.87551232     0.02800
C1136       C  0.64202556  0.31677787  0.86699804    -0.13400
C1137       C  0.64204113  0.28743859  0.85815811     0.00300
C1138       C  0.61243324  0.25756219  0.85878690    -0.11900
C1139       C  0.58307460  0.25690364  0.86865814     0.02800
C1140       C  0.58276573  0.28600866  0.87559792    -0.11300
H1141       H  0.66503117  0.34002582  0.86756069     0.08400
H1142       H  0.61239661  0.23472615  0.85332901     0.05900
H1143       H  0.55953176  0.28518393  0.88092140     0.05800
C1144       C  0.28060671  0.59510041  0.59171508     0.02800
C1145       C  0.30894009  0.62375695  0.57878604    -0.13400
C1146       C  0.30810652  0.65286131  0.57282242     0.00300
C1147       C  0.27786418  0.65219865  0.57649996    -0.11900
C1148       C  0.24897333  0.62253827  0.58488522     0.02800
C1149       C  0.25055583  0.59427505  0.59388564    -0.11300
H1150       H  0.33208830  0.62390173  0.57637147     0.08400
H1151       H  0.27677100  0.67460632  0.57340690     0.05900
H1152       H  0.22848306  0.57180928  0.60322878     0.05800
Zr1153     Zr  0.41225426  0.42374068  0.62940357     2.17500
O1154       O  0.47151555  0.44486884  0.62620769    -0.51700
O1155       O  0.41442644  0.37172178  0.62931468    -0.74900
O1156       O  0.43877265  0.44380780  0.70087832    -0.81700
O1157       O  0.40525314  0.44118203  0.50832637    -0.83400
O1158       O  0.40240439  0.44118275  0.75088650    -0.79000
O1159       O  0.44192921  0.44972948  0.56119178    -0.90700
O1160       O  0.36247128  0.32896611  0.63852650    -0.76600
O1161       O  0.36869751  0.39066266  0.67788912    -0.86100
O1162       O  0.36824190  0.38270825  0.58700209    -0.85800
O1163       O  0.39667094  0.45967818  0.66504612    -0.72600
O1164       O  0.39428083  0.45124774  0.58140468    -0.84700
Zr1165     Zr  0.29319073  0.41237390  0.62082384     2.26400
Zr1166     Zr  0.35174992  0.42576634  0.71212574     2.06300
Zr1167     Zr  0.35024897  0.41047201  0.53885555     2.10000
Zr1168     Zr  0.32495961  0.34978940  0.63577441     1.78800
O1169       O  0.35749287  0.42113344  0.46278186    -0.93500
O1170       O  0.31282411  0.32003889  0.70285001    -0.41300
O1171       O  0.30648006  0.37555511  0.58542766    -0.77900
O1172       O  0.30769629  0.38363824  0.67129053    -0.96600
O1173       O  0.33610305  0.45373941  0.66290569    -0.89900
O1174       O  0.33609505  0.44689661  0.57339306    -0.92800
C1175       C  0.39347401  0.34068358  0.63390397     1.01000
C1176       C  0.43485202  0.45280935  0.52202807     1.13900
C1177       C  0.43136251  0.44788453  0.73938198     1.04700
O1178       O  0.33147648  0.38364541  0.76706126    -0.94900
O1179       O  0.30307324  0.42804345  0.73790850    -0.90700
O1180       O  0.26654092  0.41499084  0.68351990    -0.83800
C1181       C  0.27539005  0.42274821  0.72203349     1.11300
O1182       O  0.43746595  0.52904210  0.61110971    -0.96900
Zr1183     Zr  0.37957372  0.48695452  0.61604736     1.88900
O1184       O  0.28793561  0.46086757  0.61695816    -0.73600
O1185       O  0.36674465  0.47193101  0.76019799    -0.52800
O1186       O  0.39751426  0.52827357  0.67207558    -0.97500
O1187       O  0.39411579  0.51801959  0.54993254    -0.54700
O1188       O  0.33973460  0.50507177  0.61519828    -0.74100
C1189       C  0.30830540  0.49183776  0.61558601     0.98300
O1190       O  0.23522816  0.36929085  0.62207925    -0.62900
O1191       O  0.33531518  0.35587951  0.51243166    -0.57700
O1192       O  0.26590994  0.40587004  0.55416312    -0.94400
O1193       O  0.30299382  0.41120620  0.50404834    -0.92800
O1194       O  0.30539701  0.30709530  0.58147275    -0.93200
O1195       O  0.26716076  0.30796426  0.64401588    -0.91900
C1196       C  0.27542755  0.40885390  0.51563712     1.17100
H1197       H  0.37552897  0.36983558  0.57133843     0.33100
H1198       H  0.28914326  0.37016508  0.68944585     0.43900
H1199       H  0.32927919  0.45814278  0.55385439     0.37400
H1200       H  0.41485314  0.47707333  0.68049722     0.33900
H1201       H  0.31135237  0.29879755  0.69568225     0.25700
H1202       H  0.36958637  0.46447893  0.78849429     0.31600
H1203       H  0.37704678  0.52658586  0.68348006     0.37600
H1204       H  0.30852673  0.28944852  0.59379865     0.32000
H1205       H  0.31715054  0.34736138  0.99051836     0.30900
H1206       H  0.35154779  0.40006536  0.94894743     0.32600
H1207       H  0.37746034  0.52490740  0.54630748     0.31500
H1208       H  0.25512601  0.31515080  0.62501806     0.35500
H1209       H  0.23298870  0.35352174  0.59961717     0.28300
H1210       H  0.47598177  0.43216603  0.64764786     0.32500
H1211       H  0.44952858  0.51704509  0.61612530     0.35400
H1212       H  0.35295762  0.35961601  0.49209918     0.28000
H1213       H  0.23244544  0.35711001  0.64884927     0.40800
H1214       H  0.32272348  0.39203185  0.78939774     0.30900
H1215       H  0.33332318  0.33196858  0.71977071     0.38500
H1216       H  0.38886987  0.50135779  0.52742891     0.30400
H1217       H  0.38915397  0.48915805  0.75157980     0.30400
H1218       H  0.48182464  0.46749930  0.63784499     0.30700
Zr1219     Zr  0.48076625  0.48976779  0.88037481     2.17500
O1220       O  0.42173773  0.47022083  0.87728813    -0.51700
O1221       O  0.47867233  0.54185630  0.88275625    -0.74900
O1222       O  0.45279284  0.46822917  0.95032426    -0.81700
O1223       O  0.48740425  0.47110360  0.75933323    -0.83400
O1224       O  0.48966435  0.47451086  0.00196892    -0.79000
O1225       O  0.45149459  0.46699498  0.81087065    -0.90700
O1226       O  0.53102759  0.58448902  0.88529390    -0.76600
O1227       O  0.52462057  0.52488865  0.92775266    -0.86100
O1228       O  0.52481855  0.52854358  0.83621765    -0.85800
O1229       O  0.49667580  0.45520779  0.91928962    -0.72600
O1230       O  0.49704371  0.45894139  0.83498001    -0.84700
Zr1231     Zr  0.59900033  0.49977533  0.87675761     2.26400
Zr1232     Zr  0.54143207  0.49107329  0.96598988     2.06300
Zr1233     Zr  0.54180580  0.49799713  0.79146045     2.10000
Zr1234     Zr  0.56829256  0.56346834  0.88367360     1.78800
O1235       O  0.53671691  0.47847770  0.71857033    -0.93500
O1236       O  0.58239796  0.59645571  0.94825227    -0.41300
O1237       O  0.58590500  0.53498651  0.83652842    -0.77900
O1238       O  0.58516440  0.53110028  0.92346163    -0.96600
O1239       O  0.55618707  0.46030705  0.92040929    -0.89900
O1240       O  0.55611389  0.46344434  0.83021592    -0.92800
C1241       C  0.49989211  0.57302612  0.88430666     1.01000
C1242       C  0.45828066  0.46274410  0.77208673     1.13900
C1243       C  0.46033069  0.46539456  0.98921817     1.04700
O1244       O  0.55914851  0.53462404  0.01884149    -0.94900
O1245       O  0.59211190  0.49362131  0.99488951    -0.90700
O1246       O  0.62525840  0.49691383  0.94009639    -0.83800
C1247       C  0.61840561  0.49501151  0.97951486     1.11300
O1248       O  0.45529710  0.38200484  0.87119937    -0.96900
Zr1249     Zr  0.51284825  0.42534285  0.87392951     1.88900
O1250       O  0.60524995  0.45187506  0.87452759    -0.73600
O1251       O  0.52926980  0.44871988  0.01913012    -0.52800
O1252       O  0.49348587  0.38625017  0.93252702    -0.97500
O1253       O  0.49890747  0.39201340  0.80967319    -0.54700
O1254       O  0.55329298  0.40764257  0.87718007    -0.74100
C1255       C  0.58476841  0.42093187  0.87614436     0.98300
O1256       O  0.65568450  0.54521728  0.88031181    -0.62900
O1257       O  0.55588021  0.54977311  0.75667757    -0.57700
O1258       O  0.62589352  0.50307171  0.81130385    -0.94400
O1259       O  0.58905775  0.49571567  0.75949573    -0.92800
O1260       O  0.58490011  0.60532885  0.82867503    -0.93200
O1261       O  0.62695336  0.60345227  0.88933048    -0.87500
C1262       C  0.61659532  0.49871299  0.77264338     1.17100
H1263       H  0.51755542  0.54091691  0.81935894     0.33100
H1264       H  0.60379505  0.54530911  0.94117663     0.43900
H1265       H  0.56283451  0.45134204  0.81195886     0.37400
H1266       H  0.47874558  0.43781549  0.93493334     0.33900
H1267       H  0.58663595  0.61834089  0.93872687     0.25700
H1268       H  0.53338224  0.47529840  0.55252195     0.31600
H1269       H  0.51358613  0.39149490  0.94889599     0.37600
H1270       H  0.58658781  0.62478123  0.84336574     0.32000
H1271       H  0.57377083  0.55377513  0.73664731     0.30900
H1272       H  0.54294009  0.49796422  0.70047746     0.32600
H1273       H  0.51424747  0.38329091  0.80918222     0.31500
H1274       H  0.63637097  0.60287943  0.86143512     0.35500
H1275       H  0.65664099  0.56125645  0.85913817     0.28300
H1276       H  0.41747659  0.48215105  0.90007798     0.32500
H1277       H  0.44311957  0.39363414  0.86448649     0.35400
H1278       H  0.53664299  0.54442122  0.73834594     0.28000
H1279       H  0.65758859  0.55606039  0.90798541     0.40800
H1280       H  0.54177782  0.54074581  0.01859345     0.30900
H1281       H  0.56152332  0.58727415  0.96437327     0.38500
H1282       H  0.50627038  0.40803012  0.78601700     0.30400
H1283       H  0.50700794  0.43034812  0.01197659     0.30400
H1284       H  0.41076009  0.44703348  0.88692097     0.30700
C1285       C  0.31099548  0.54238559  0.64085241    -0.06100
C1286       C  0.29541491  0.51455387  0.61454235    -0.00200
C1287       C  0.27099357  0.51123736  0.58517910    -0.08800
C1288       C  0.26538791  0.53768268  0.58038413    -0.06100
C1289       C  0.28286110  0.56639368  0.60453088    -0.00200
C1290       C  0.30433451  0.56811945  0.63730971    -0.08700
C1291       C  0.32104714  0.59645569  0.66875140     0.61700
H1292       H  0.32896536  0.54424628  0.66409193     0.12400
H1293       H  0.24859112  0.53692520  0.55614973     0.12400
C1294       C  0.25277269  0.48124160  0.55689208     0.61900
F1295       F  0.35445858  0.61424314  0.66022716    -0.23200
F1296       F  0.31662546  0.58402582  0.70955088    -0.20600
F1297       F  0.30847521  0.61753550  0.66776867    -0.20200
F1298       F  0.23408071  0.45358207  0.58138165    -0.20300
F1299       F  0.27532522  0.47711773  0.53364942    -0.20600
F1300       F  0.23176594  0.48430006  0.52870345    -0.23300
C1301       C  0.59277376  0.38046363  0.91503033    -0.06100
C1302       C  0.59787234  0.39851390  0.87768332    -0.00200
C1303       C  0.61156758  0.39206295  0.84155746    -0.08800
C1304       C  0.61844180  0.36627792  0.84346636    -0.06100
C1305       C  0.61113907  0.34664445  0.87981839    -0.00200
C1306       C  0.59917202  0.35436258  0.91685474    -0.08700
C1307       C  0.59120451  0.33427122  0.95736433     0.61700
H1308       H  0.58210212  0.38590657  0.94218735     0.12400
H1309       H  0.62749046  0.35977468  0.81558684     0.12400
C1310       C  0.61683845  0.41090598  0.80052976     0.61900
F1311       F  0.59006988  0.35188479  0.99199829    -0.23200
F1312       F  0.61496930  0.32574959  0.96548267    -0.20600
F1313       F  0.56078184  0.30605132  0.95351154    -0.20200
F1314       F  0.63813097  0.44402737  0.80765143    -0.20300
F1315       F  0.58696134  0.40628017  0.78590990    -0.20600
F1316       F  0.63033999  0.40059553  0.76918485    -0.23300
C1317       C  0.36887247  0.74202960  0.55052461    -0.06100
C1318       C  0.39138837  0.74884905  0.58375257    -0.00200
C1319       C  0.39033954  0.72267392  0.60728699    -0.08800
C1320       C  0.36381990  0.69083892  0.60022050    -0.06100
C1321       C  0.33933498  0.68454292  0.56975007    -0.00200
C1322       C  0.34339440  0.71003730  0.54209843    -0.08700
C1323       C  0.32144570  0.70509005  0.50406258     0.61700
H1324       H  0.37078724  0.76215135  0.53142954     0.12400
H1325       H  0.36073099  0.67106212  0.62083453     0.12400
C1326       C  0.41527547  0.72838163  0.64185122     0.61900
F1327       F  0.34089436  0.72018777  0.46891795    -0.23200
F1328       F  0.30238363  0.71936073  0.51224510    -0.20600
F1329       F  0.30102995  0.67227810  0.49394182    -0.20200
F1330       F  0.41396140  0.74846589  0.67276302    -0.20300
F1331       F  0.44667489  0.74311111  0.62492691    -0.20600
F1332       F  0.40918345  0.69929889  0.66097459    -0.23300
C1333       C  0.52092199  0.17356226  0.90884736    -0.06100
C1334       C  0.49967000  0.16162967  0.87396510    -0.00200
C1335       C  0.50318900  0.18221143  0.83942832    -0.08800
C1336       C  0.53036125  0.21419033  0.83930658    -0.06100
C1337       C  0.55283103  0.22540504  0.87315699    -0.00200
C1338       C  0.54733378  0.20573409  0.90954297    -0.08700
C1339       C  0.56901096  0.21869938  0.94884476     0.61700
H1340       H  0.51729575  0.15705281  0.93487216     0.12400
H1341       H  0.53498596  0.23020266  0.81228190     0.12400
C1342       C  0.47920503  0.16967701  0.80245062     0.61900
F1343       F  0.55830883  0.19543183  0.98091911    -0.23200
F1344       F  0.56828719  0.24595792  0.96407202    -0.20600
F1345       F  0.60112594  0.22745368  0.93929127    -0.20200
F1346       F  0.44787227  0.16038817  0.81685738    -0.20300
F1347       F  0.47906585  0.14280616  0.78418289    -0.20600
F1348       F  0.48745914  0.19346117  0.77152207    -0.23300
C1349       C  0.16045456  0.59707200  0.56411493    -0.06100
C1350       C  0.15241228  0.60661811  0.60239097    -0.00200
C1351       C  0.17727869  0.62562332  0.63231874    -0.08800
C1352       C  0.20944760  0.63214539  0.62443185    -0.06100
C1353       C  0.21696966  0.62081519  0.58732534    -0.00200
C1354       C  0.19276401  0.60443922  0.55565572    -0.08700
C1355       C  0.20127572  0.59521101  0.51317174     0.61700
H1356       H  0.14100220  0.58315961  0.54131568     0.12400
H1357       H  0.22866861  0.64487377  0.64790947     0.12400
C1358       C  0.16943405  0.63754145  0.67300134     0.61900
F1359       F  0.17441818  0.58119849  0.48600635    -0.23200
F1360       F  0.21196370  0.57285584  0.51877667    -0.20600
F1361       F  0.22601731  0.62320788  0.49396164    -0.20200
F1362       F  0.14585002  0.61092526  0.69569400    -0.20300
F1363       F  0.15764251  0.65846477  0.66320033    -0.20600
F1364       F  0.19695262  0.65459003  0.69857514    -0.23300
C1365       C  0.72743532  0.30882480  0.82375884    -0.06100
C1366       C  0.73752854  0.29845067  0.85951497    -0.00200
C1367       C  0.71426168  0.27854251  0.89052495    -0.08800
C1368       C  0.68235268  0.27391035  0.88780542    -0.06100
C1369       C  0.67333921  0.28752865  0.85431348    -0.00200
C1370       C  0.69507790  0.30266058  0.81991146    -0.08700
C1371       C  0.68392025  0.31122292  0.77906402     0.61700
H1372       H  0.74545910  0.32266121  0.79943430     0.12400
H1373       H  0.66468501  0.26098849  0.91281182     0.12400
C1374       C  0.72366239  0.26407558  0.92732328     0.61900
F1375       F  0.70857043  0.32341668  0.74867324    -0.23200
F1376       F  0.67500779  0.33471091  0.78645079    -0.20600
F1377       F  0.65716021  0.28315283  0.76280703    -0.20200
F1378       F  0.74989107  0.28900935  0.94884723    -0.20300
F1379       F  0.73254731  0.24194676  0.91217012    -0.20600
F1380       F  0.69803614  0.24771447  0.95582348    -0.23300
C1381       C  0.06773495  0.43182472  0.91592340    -0.06100
C1382       C  0.04604966  0.41753604  0.88152206    -0.00200
C1383       C  0.05755162  0.40983707  0.84418226    -0.08800
C1384       C  0.08908643  0.41320206  0.84416008    -0.06100
C1385       C  0.11030129  0.42525282  0.87956700    -0.00200
C1386       C  0.10018520  0.43682758  0.91513342    -0.08700
C1387       C  0.12316227  0.45472466  0.95193939     0.61700
H1388       H  0.05869103  0.43794855  0.94412391     0.12400
H1389       H  0.09694793  0.40539593  0.81637879     0.12400
C1390       C  0.03653079  0.39830768  0.80422009     0.61900
F1391       F  0.11174326  0.47162395  0.97605732    -0.23200
F1392       F  0.15413239  0.47744693  0.93707736    -0.20600
F1393       F  0.12551748  0.43236826  0.97796315    -0.20200
F1394       F  0.02667765  0.42069090  0.79367132    -0.20300
F1395       F  0.00900783  0.36780684  0.81075249    -0.20600
F1396       F  0.05366038  0.39573641  0.77002949    -0.23300
C1397       C  0.23956608  0.43359272  0.93331669    -0.06100
C1398       C  0.20525908  0.41551887  0.94029479    -0.00200
C1399       C  0.19265607  0.39012876  0.97086184    -0.08800
C1400       C  0.21905088  0.39208369  0.48886423    -0.06100
C1401       C  0.25354004  0.41226267  0.48416316    -0.00200
C1402       C  0.26150750  0.42583913  0.95326694    -0.08700
C1403       C  0.29699046  0.44209364  0.93781641     0.61700
H1404       H  0.24889861  0.45261975  0.90924028     0.12400
H1405       H  0.20992776  0.37177744  0.51106370     0.12400
C1406       C  0.15585832  0.36845088  0.97740335     0.61900
F1407       F  0.30308484  0.46413560  0.90514665    -0.23200
F1408       F  0.30309134  0.41804076  0.92251559    -0.20600
F1409       F  0.31874364  0.45915432  0.97033696    -0.20200
F1410       F  0.14106200  0.35255334  0.93984676    -0.20300
F1411       F  0.14263695  0.38754653  0.99005550    -0.20600
F1412       F  0.15300565  0.34644672  0.49343410    -0.23300
C1413       C  0.21852030  0.39857461  0.74780070    -0.06100
C1414       C  0.25095394  0.42533722  0.74862205    -0.00200
C1415       C  0.25755695  0.45505339  0.76853399    -0.08800
C1416       C  0.23175434  0.45599963  0.78993970    -0.06100
C1417       C  0.20014455  0.42814300  0.79263281    -0.00200
C1418       C  0.19293118  0.39945236  0.76976073    -0.08700
C1419       C  0.15851999  0.36961488  0.77000371     0.61700
H1420       H  0.21358558  0.37655192  0.73062463     0.12400
H1421       H  0.23690125  0.47749025  0.80855933     0.12400
C1422       C  0.29166427  0.48533342  0.76798990     0.61900
F1423       F  0.15598467  0.34515380  0.74299150    -0.23200
F1424       F  0.13621562  0.37889280  0.75675511    -0.20600
F1425       F  0.15030037  0.35666547  0.81052108    -0.20200
F1426       F  0.30244429  0.49360796  0.72657261    -0.20300
F1427       F  0.31328428  0.47895958  0.79020874    -0.20600
F1428       F  0.29194980  0.51219416  0.78666146    -0.23300
C1429       C  0.79605913  0.49295176  0.67248041    -0.06100
C1430       C  0.77925124  0.48100495  0.63365236    -0.00200
C1431       C  0.79477307  0.47202529  0.60146125    -0.08800
C1432       C  0.82742724  0.47848817  0.60800394    -0.06100
C1433       C  0.84501692  0.49317145  0.64541269    -0.00200
C1434       C  0.82848327  0.49908358  0.67899209    -0.08700
C1435       C  0.84494238  0.51183076  0.72176713     0.61700
H1436       H  0.78414310  0.49896927  0.69749786     0.12400
H1437       H  0.84017555  0.47366729  0.58282216     0.12400
C1438       C  0.77743466  0.45564025  0.56025433     0.61900
F1439       F  0.82283854  0.51032588  0.75206185    -0.23200
F1440       F  0.86959782  0.54423849  0.71812368    -0.20600
F1441       F  0.85824545  0.49308666  0.73602951    -0.20200
F1442       F  0.77529333  0.47827582  0.53439767    -0.20300
F1443       F  0.74618141  0.42970400  0.56874019    -0.20600
F1444       F  0.79429356  0.44314576  0.53811249    -0.23300
C1445       C  0.62405081  0.46511901  0.71828179    -0.06100
C1446       C  0.63827100  0.49388170  0.74285446    -0.00200
C1447       C  0.67315255  0.51424047  0.74368282    -0.08800
C1448       C  0.69261222  0.50485766  0.72006703    -0.06100
C1449       C  0.67836837  0.47641765  0.69498216    -0.00200
C1450       C  0.64350510  0.45589083  0.69446120    -0.08700
C1451       C  0.62669169  0.42470761  0.66781566     0.61700
H1452       H  0.59746848  0.44955862  0.71836157     0.12400
H1453       H  0.71911739  0.52084987  0.71886073     0.12400
C1454       C  0.68985997  0.54660641  0.76776839     0.61900
F1455       F  0.59472968  0.40384077  0.68138014    -0.23200
F1456       F  0.64381856  0.40786871  0.67081828    -0.20600
F1457       F  0.62546973  0.43254955  0.62579431    -0.20200
F1458       F  0.69024375  0.54060681  0.81061491    -0.20300
F1459       F  0.67319984  0.56360423  0.76100817    -0.20600
F1460       F  0.72212984  0.56656730  0.75472759    -0.23300
C1461       C  0.69465757  0.52220802  0.54865898    -0.06100
C1462       C  0.69521510  0.49251292  0.54782973    -0.00200
C1463       C  0.67201177  0.46617583  0.52266423    -0.08800
C1464       C  0.65014850  0.46835907  0.00153701    -0.06100
C1465       C  0.64319166  0.49399189  0.00775180    -0.00200
C1466       C  0.66963892  0.52535638  0.52819260    -0.08700
C1467       C  0.66936444  0.55747302  0.53051487     0.61700
H1468       H  0.71226355  0.54193393  0.56883453     0.12400
H1469       H  0.63512113  0.44899916  0.97917856     0.12400
C1470       C  0.67976207  0.43718999  0.02039076     0.61900
F1471       F  0.69606462  0.58128788  0.55311339    -0.23200
F1472       F  0.64083055  0.55222924  0.55034547    -0.20600
F1473       F  0.67052740  0.56935423  0.48999696    -0.20200
F1474       F  0.66591351  0.41901945  0.55887339    -0.20300
F1475       F  0.70381351  0.44115133  0.50684988    -0.20600
F1476       F  0.65872877  0.41502181  0.99039881    -0.23300
C1477       C  0.45717327  0.62389918  0.86148686    -0.06100
C1478       C  0.47998361  0.65449111  0.87953321    -0.00200
C1479       C  0.50806519  0.65736643  0.90052106    -0.08800
C1480       C  0.51213896  0.62963705  0.90292084    -0.06100
C1481       C  0.48962477  0.59887715  0.88473466    -0.00200
C1482       C  0.46117554  0.59585658  0.86415780    -0.08700
C1483       C  0.43508301  0.56343272  0.84515775     0.61700
H1484       H  0.43582264  0.62206540  0.84557670     0.12400
H1485       H  0.53358251  0.63203057  0.91921453     0.12400
C1486       C  0.53430748  0.68979580  0.91962076     0.61900
F1487       F  0.41108116  0.56664192  0.82361667    -0.23200
F1488       F  0.41986233  0.54073885  0.87735428    -0.20600
F1489       F  0.44924583  0.55172654  0.81668024    -0.20200
F1490       F  0.52196410  0.69663507  0.95558973    -0.20300
F1491       F  0.54370414  0.71504393  0.89054798    -0.20600
F1492       F  0.56230922  0.68881128  0.93120618    -0.23300
C1493       C  0.49911648  0.75944682  0.97046235    -0.06100
C1494       C  0.47463216  0.75076648  0.93956906    -0.00200
C1495       C  0.45786283  0.76898011  0.93703149    -0.08800
C1496       C  0.46918281  0.79764111  0.96122318    -0.06100
C1497       C  0.49798702  0.81223142  0.48948462    -0.00200
C1498       C  0.50816586  0.78639654  0.99804940    -0.08700
C1499       C  0.53253610  0.79230001  0.03350259     0.61700
H1500       H  0.51140847  0.74519822  0.97251539     0.12400
H1501       H  0.46323001  0.77522701  0.53196184     0.12400
C1502       C  0.42784920  0.75908323  0.90916189     0.61900
F1503       F  0.54928497  0.77538590  0.02665770    -0.23200
F1504       F  0.56190672  0.87123952  0.46857907    -0.20600
F1505       F  0.55569648  0.82541315  0.03656658    -0.20200
F1506       F  0.41050946  0.72548557  0.90187178    -0.20300
F1507       F  0.43777095  0.77572382  0.87101456    -0.20600
F1508       F  0.40647523  0.76731076  0.92858002    -0.23300
C1509       C  0.43630351  0.73944699  0.78926963    -0.06100
C1510       C  0.46254518  0.73298601  0.79073742    -0.00200
C1511       C  0.49054818  0.75175053  0.76523790    -0.08800
C1512       C  0.49278753  0.77860256  0.74239899    -0.06100
C1513       C  0.46843132  0.78777781  0.74568299    -0.00200
C1514       C  0.43906869  0.76713755  0.76813243    -0.08700
C1515       C  0.41137931  0.77494928  0.77153057     0.61700
H1516       H  0.41513811  0.72489279  0.80937146     0.12400
H1517       H  0.51439963  0.79361444  0.72323542     0.12400
C1518       C  0.51860494  0.74441717  0.76439754     0.61900
F1519       F  0.38369438  0.74962417  0.79066905    -0.23200
F1520       F  0.40224115  0.78002526  0.73175271    -0.20600
F1521       F  0.42187175  0.80303541  0.79569764    -0.20200
F1522       F  0.50641842  0.71174204  0.75367762    -0.20300
F1523       F  0.53338102  0.75030873  0.80396588    -0.20600
F1524       F  0.54247087  0.76369032  0.73499794    -0.23300
C1525       C  0.60687732  0.06489170  0.66747612    -0.06100
C1526       C  0.58036799  0.05664945  0.63966388    -0.00200
C1527       C  0.58188018  0.08179102  0.61297858    -0.08800
C1528       C  0.61060911  0.11361144  0.61406239    -0.06100
C1529       C  0.63802498  0.12114919  0.64033622    -0.00200
C1530       C  0.63577640  0.09594526  0.66782764    -0.08700
C1531       C  0.66392215  0.10049100  0.69655978     0.61700
H1532       H  0.60515956  0.04589290  0.68857892     0.12400
H1533       H  0.61214973  0.13280598  0.59350617     0.12400
C1534       C  0.55417964  0.07492413  0.58226756     0.61900
F1535       F  0.65798622  0.07118758  0.71485250    -0.23200
F1536       F  0.66799468  0.12188479  0.72919831    -0.20600
F1537       F  0.69276249  0.11255344  0.67344090    -0.20200
F1538       F  0.52514115  0.06453679  0.60436138    -0.20300
F1539       F  0.55015673  0.05074801  0.55377265    -0.20600
F1540       F  0.56057841  0.10269908  0.55938254    -0.23300
C1541       C  0.76474210  0.24722919  0.76294000    -0.06100
C1542       C  0.79733632  0.25710012  0.75075855    -0.00200
C1543       C  0.80306429  0.24350578  0.71409583    -0.08800
C1544       C  0.77569390  0.22100089  0.68992293    -0.06100
C1545       C  0.74314104  0.21218434  0.70116244    -0.00200
C1546       C  0.73745160  0.22524785  0.73839833    -0.08700
C1547       C  0.70297421  0.21733091  0.75085772     0.61700
H1548       H  0.76087888  0.25773472  0.79149195     0.12400
H1549       H  0.77959129  0.21131011  0.66062884     0.12400
C1550       C  0.83773909  0.25259521  0.70093568     0.61900
F1551       F  0.70297402  0.23321392  0.78790950    -0.23200
F1552       F  0.68343000  0.18385120  0.75728644    -0.20600
F1553       F  0.68937516  0.22703378  0.71893563    -0.20200
F1554       F  0.85344193  0.24680079  0.73423775    -0.20300
F1555       F  0.85537611  0.28553501  0.69005755    -0.20600
F1556       F  0.83769328  0.23437245  0.66634285    -0.23300
C1557       C  0.73145346  0.25393768  0.55981762    -0.06100
C1558       C  0.72035149  0.22001341  0.55690191    -0.00200
C1559       C  0.73541508  0.20907836  0.52737196    -0.08800
C1560       C  0.76226963  0.23262154  0.50340254    -0.06100
C1561       C  0.78197135  0.26322552  0.01178531    -0.00200
C1562       C  0.75967196  0.27771126  0.53803458    -0.08700
C1563       C  0.77320370  0.31398655  0.54790533     0.61700
H1564       H  0.72024393  0.26185804  0.58366035     0.12400
H1565       H  0.78220980  0.22181276  0.98291488     0.12400
C1566       C  0.72473387  0.17283107  0.52380036     0.61900
F1567       F  0.75146353  0.31894594  0.57220080    -0.23200
F1568       F  0.78233504  0.32696165  0.01181053    -0.20600
F1569       F  0.80230662  0.32584868  0.57041642    -0.20200
F1570       F  0.69124057  0.15482611  0.51574888    -0.20300
F1571       F  0.73146964  0.16202834  0.56135859    -0.20600
F1572       F  0.74091214  0.16689345  0.49126264    -0.23300
C1573       C  0.28460677  0.84242237  0.84462534    -0.06100
C1574       C  0.30417988  0.85454690  0.88113527    -0.00200
C1575       C  0.29667949  0.83364252  0.91678446    -0.08800
C1576       C  0.26992124  0.80083443  0.91425998    -0.06100
C1577       C  0.25024676  0.78844878  0.87738616    -0.00200
C1578       C  0.25773421  0.80997443  0.84194051    -0.08700
C1579       C  0.23683463  0.79972946  0.80181164     0.61700
H1580       H  0.29028966  0.85914853  0.81815289     0.12400
H1581       H  0.26398075  0.78464935  0.94136546     0.12400
C1582       C  0.31619720  0.84656341  0.95764784     0.61900
F1583       F  0.24485255  0.82624154  0.77533549    -0.23200
F1584       F  0.20385675  0.78593992  0.81219146    -0.20600
F1585       F  0.24178624  0.77728291  0.77931686    -0.20200
F1586       F  0.31287912  0.87237258  0.97301204    -0.20300
F1587       F  0.34916806  0.85765131  0.94997414    -0.20600
F1588       F  0.30547473  0.82252163  0.98869653    -0.23300
C1589       C  0.11640358  0.68142689  0.92910503    -0.06100
C1590       C  0.14908180  0.69552152  0.94421762    -0.00200
C1591       C  0.15460700  0.68905196  0.98615181    -0.08800
C1592       C  0.13042918  0.65842866  0.51201501    -0.06100
C1593       C  0.09796963  0.64997528  0.50069209    -0.00200
C1594       C  0.08895788  0.65958554  0.95362711    -0.08700
C1595       C  0.05469369  0.64424315  0.93444762     0.61700
H1596       H  0.11266063  0.68630942  0.89654939     0.12400
H1597       H  0.13403659  0.64684492  0.53963365     0.12400
C1598       C  0.19202457  0.68643284  0.49836556     0.61900
F1599       F  0.05477060  0.65855135  0.89594669    -0.23200
F1600       F  0.03379487  0.64822645  0.96161916    -0.20600
F1601       F  0.04271595  0.61110776  0.92741405    -0.20200
F1602       F  0.21368130  0.71990077  0.50192118    -0.20300
F1603       F  0.20632288  0.69169060  0.97973058    -0.20600
F1604       F  0.19237679  0.67185372  0.53639928    -0.23300
C1605       C  0.16168346  0.69863521  0.77330128    -0.06100
C1606       C  0.17316635  0.68419590  0.80239444    -0.00200
C1607       C  0.15782244  0.64942242  0.80396349    -0.08800
C1608       C  0.12860458  0.63019894  0.78109893    -0.06100
C1609       C  0.11512287  0.64459420  0.75494804    -0.00200
C1610       C  0.13249149  0.67960851  0.74995944    -0.08700
C1611       C  0.11922841  0.69743198  0.72308120     0.61700
H1612       H  0.17370542  0.72523067  0.77256168     0.12400
H1613       H  0.11638653  0.60360012  0.78346965     0.12400
C1614       C  0.17051292  0.63180079  0.83167842     0.61900
F1615       F  0.13589842  0.73099533  0.73075009    -0.23200
F1616       F  0.08632810  0.68556075  0.73239148    -0.20600
F1617       F  0.12274143  0.69304164  0.68039056    -0.20200
F1618       F  0.14888564  0.61662757  0.86495675    -0.20300
F1619       F  0.20152100  0.65307110  0.84794256    -0.20600
F1620       F  0.17260986  0.60811376  0.80792176    -0.23300
C1621       C  0.38884447  0.28967193  0.66353288    -0.06100
C1622       C  0.40417712  0.31541617  0.63396079    -0.00200
C1623       C  0.42441593  0.31314994  0.60225811    -0.08800
C1624       C  0.42779722  0.28475384  0.60080591    -0.06100
C1625       C  0.41215034  0.25873381  0.63027984    -0.00200
C1626       C  0.39233018  0.26150309  0.66260175    -0.08700
C1627       C  0.37362502  0.23463764  0.69539670     0.61700
H1628       H  0.37336363  0.29168336  0.68745935     0.12400
H1629       H  0.44302096  0.28277780  0.57649032     0.12400
C1630       C  0.44193587  0.34028363  0.56971151     0.61900
F1631       F  0.35258955  0.24072954  0.71959413    -0.23200
F1632       F  0.39557432  0.23276775  0.72302058    -0.20600
F1633       F  0.35467342  0.20466336  0.67530924    -0.20200
F1634       F  0.46462838  0.36889128  0.59008022    -0.20300
F1635       F  0.41938445  0.34581090  0.54826308    -0.20600
F1636       F  0.45863587  0.33239205  0.54001184    -0.23300
C1637       C  0.42637803  0.11865795  0.71506463    -0.06100
C1638       C  0.39971799  0.10724970  0.74299673    -0.00200
C1639       C  0.38245449  0.12503977  0.74652669    -0.08800
C1640       C  0.39180900  0.15264653  0.72015773    -0.06100
C1641       C  0.41861783  0.16386829  0.69241332    -0.00200
C1642       C  0.43738161  0.14769364  0.69181076    -0.08700
C1643       C  0.46918335  0.16000414  0.66696440     0.61700
H1644       H  0.44033329  0.10595224  0.71352219     0.12400
H1645       H  0.37758831  0.16505031  0.72002702     0.12400
C1646       C  0.35395767  0.11495574  0.77714482     0.61900
F1647       F  0.49250911  0.15815566  0.69195327    -0.23200
F1648       F  0.48256060  0.19245853  0.65443388    -0.20600
F1649       F  0.46314763  0.14034207  0.63158111    -0.20200
F1650       F  0.36594370  0.12334278  0.81809695    -0.20300
F1651       F  0.33243086  0.08139907  0.77463042    -0.20600
F1652       F  0.33629998  0.13066659  0.76820764    -0.23300
C1653       C  0.45019188  0.16655006  0.54251611    -0.06100
C1654       C  0.42668740  0.17689596  0.54279589    -0.00200
C1655       C  0.39900390  0.16093128  0.51589746    -0.08800
C1656       C  0.39248207  0.12887318  0.99754570    -0.06100
C1657       C  0.41549147  0.11801885  0.00181178    -0.00200
C1658       C  0.44436763  0.13748586  0.52186667    -0.08700
C1659       C  0.46880486  0.12550979  0.52769162     0.61700
H1660       H  0.47140330  0.17927594  0.56323454     0.12400
H1661       H  0.37059425  0.11432867  0.97852324     0.12400
C1662       C  0.37422045  0.17262144  0.51276407     0.61900
F1663       F  0.49743966  0.14877043  0.54763681    -0.23200
F1664       F  0.47743449  0.11844493  0.48884284    -0.20600
F1665       F  0.45471945  0.09749822  0.55248012    -0.20200
F1666       F  0.38251425  0.19803929  0.00452236    -0.20300
F1667       F  0.35889761  0.16894106  0.55151383    -0.20600
F1668       F  0.34451241  0.14586274  0.98936801    -0.23300
loop_ 
_geom_bond_atom_site_label_1 
_geom_bond_atom_site_label_2 
_geom_bond_distance 
_geom_bond_site_symmetry_2 
_ccdc_geom_bond_type 
C1            N2   1.369       .  A
C1            N6   1.376       .  A
C1          C791   1.520       .  S
N2            C3   1.360       .  A
C3            N4   1.335       .  A
C3          C807   1.470       .  S
N4            C5   1.340       .  A
C5            N6   1.366       .  A
C5          C820   1.469       .  S
C7            N8   1.367       .  A
C7           N12   1.372       .  A
C7          C743   1.503       .  S
N8            C9   1.361       .  A
C9           N10   1.342       .  A
C9          C772   1.467       .  S
N10          C11   1.343       .  A
C11          N12   1.366       .  A
C11         C756   1.474       .  S
C13          N14   1.367       .  A
C13          N18   1.378       .  A
C13         C695   1.515       .  S
N14          C15   1.357       .  A
C15          N16   1.337       .  A
C15         C711   1.464       .  S
N16          C17   1.341       .  A
C17          N18   1.370       .  A
C17         C724   1.476       .  S
C19          N20   1.374       .  A
C19          N24   1.369       .  A
C19         C644   1.509       .  S
N20          C21   1.368       .  A
C21          N22   1.342       .  A
C21         C676   1.475       .  S
N22          C23   1.337       .  A
C23          N24   1.359       .  A
C23         C660   1.470       .  S
C25          N26   1.379       .  A
C25          N30   1.370       .  A
C25         C596   1.507       .  S
N26          C27   1.370       .  A
C27          N28   1.338       .  A
C27         C628   1.477       .  S
N28          C29   1.336       .  A
C29          N30   1.358       .  A
C29         C615   1.462       .  S
C31          N32   1.374       .  A
C31          N36   1.377       .  A
C31         C551   1.513       .  S
N32          C33   1.362       .  A
C33          N34   1.337       .  A
C33         C583   1.469       .  S
N34          C35   1.339       .  A
C35          N36   1.369       .  A
C35         C564   1.488       .  S
Zr37         O38   2.441       .  S
Zr37         O39   2.497       .  S
Zr37         O40   2.511       .  S
Zr37         O43   2.500       .  S
Zr37         O45   2.390       .  S
Zr37         O46   2.398       .  S
Zr37         O47   2.431       .  S
Zr37         O48   2.413       .  S
O38          H94   0.990       .  S
O38         H102   0.990       .  S
O39          C59   1.294   1_655  A
O40          C61   1.300       .  A
O41         Zr51   2.447       .  S
O41          C60   1.286       .  A
O42         Zr50   2.413       .  S
O42          C61   1.279       .  A
O43          C60   1.300       .  A
O44         Zr52   2.422       .  S
O44          C59   1.281   1_655  A
O45         Zr50   2.417       .  S
O45         Zr52   2.385       .  S
O46         Zr51   2.405       .  S
O46         Zr52   2.389       .  S
O46          H81   0.965       .  S
O47         Zr50   2.414       .  S
O47         Zr67   2.400       .  S
O47          H84   0.965       .  S
O48         Zr51   2.400       .  S
O48         Zr67   2.383       .  S
Zr49         O74   2.439       .  S
Zr49         O68   2.419       .  S
Zr49         O76   2.365       .  S
Zr49         O64   2.390       .  S
Zr49         O55   2.393       .  S
Zr49         O56   2.388       .  S
Zr49         O57   2.368       .  S
Zr49         O58   2.382       .  S
Zr50         O69   2.440       .  S
Zr50         O62   2.436       .  S
Zr50         O63   2.478       .  S
Zr50         O56   2.385       .  S
Zr50         O57   2.371       .  S
Zr51         O53   2.438       .  S
Zr51         O75   2.438       .  S
Zr51         O77   2.482       .  S
Zr51         O55   2.389       .  S
Zr51         O58   2.379       .  S
Zr52         O78   2.435       .  S
Zr52         O79   2.436       .  S
Zr52         O54   2.438       .  S
Zr52         O55   2.403       .  S
Zr52         O56   2.406       .  S
O53          H90   0.990       .  S
O54          H85   0.990       .  S
O54          H99   0.990       .  S
O56          H82   0.966       .  S
O57         Zr67   2.371       .  S
O58         Zr67   2.367       .  S
O58          H83   0.965       .  S
C59         C548   1.498       .  S
C60         C127   1.500       .  S
C61         C960   1.493       .  S
O62          H98   0.990       .  S
O63          C65   1.292       .  A
O64          C65   1.277       .  A
C65         C727   1.492       .  S
O66         Zr67   2.439       .  S
O66          H95   0.990       .  S
Zr67         O70   2.436       .  S
Zr67         O71   2.439       .  S
Zr67         O72   2.440       .  S
O68          C73   1.281       .  A
O69         H101   0.990       .  S
O69         H920   0.990       .  S
O70          H87   0.989       .  S
O71          H91   0.990       .  S
O71         H100   0.990       .  S
O72          C73   1.286       .  A
C73         C532   1.475       .  S
O74          H93   0.990       .  S
O74          H97   0.990       .  S
O75          H89   0.990       .  S
O75          H96   0.990       .  S
O76          C80   1.272       .  A
O77          C80   1.292       .  A
O78          H88   0.990       .  S
O79          H92   0.990       .  S
C80         C708   1.467       .  S
H86         O903   0.990       .  S
Zr103       O104   2.441       .  S
Zr103       O105   2.472       .  S
Zr103       O106   2.507       .  S
Zr103       O109   2.496       .  S
Zr103       O111   2.389       .  S
Zr103       O112   2.407       .  S
Zr103       O113   2.424       .  S
Zr103       O114   2.405       .  S
O104        H160   0.990       .  S
O104        H168   0.990       .  S
O105        C125   1.289       .  A
O106        C127   1.299       .  A
O107       Zr117   2.424       .  S
O107        C126   1.281       .  A
O108       Zr116   2.433   1_655  S
O108        C127   1.282       .  A
O109        C126   1.299       .  A
O110       Zr118   2.419       .  S
O110        C125   1.280       .  A
O111       Zr116   2.408   1_655  S
O111       Zr118   2.384       .  S
O112       Zr117   2.422       .  S
O112       Zr118   2.391       .  S
O112        H147   0.966       .  S
O113       Zr116   2.413   1_655  S
O113       Zr133   2.391   1_655  S
O113        H150   0.965       .  S
O114       Zr117   2.409       .  S
O114       Zr133   2.376   1_655  S
Zr115       O140   2.438       .  S
Zr115       O134   2.418       .  S
Zr115       O142   2.381       .  S
Zr115       O130   2.380       .  S
Zr115       O121   2.390       .  S
Zr115       O122   2.396       .  S
Zr115       O123   2.376       .  S
Zr115       O124   2.375       .  S
Zr116       O135   2.442       .  S
Zr116       O128   2.435   1_455  S
Zr116       O129   2.469       .  S
Zr116       O122   2.392       .  S
Zr116       O123   2.373       .  S
Zr117       O119   2.437   1_654  S
Zr117       O141   2.436       .  S
Zr117       O143   2.501   1_655  S
Zr117       O121   2.385   1_655  S
Zr117       O124   2.367   1_655  S
Zr118       O144   2.435       .  S
Zr118       O145   2.436       .  S
Zr118       O120   2.438       .  S
Zr118       O121   2.408   1_655  S
Zr118       O122   2.402   1_655  S
O119        H990   0.990   1_455  S
O120        H151   0.990       .  S
O120        H165   0.990       .  S
O122        H148   0.966       .  S
O123       Zr133   2.365       .  S
O124       Zr133   2.371       .  S
O124        H149   0.965       .  S
C125        C599   1.491       .  S
C126        C895   1.487   1_554  S
O128        H164   0.990   1_655  S
O129        C131   1.292       .  A
O130        C131   1.274       .  A
C131        C775   1.478       .  S
O132       Zr133   2.437       .  S
O132        H161   0.990       .  S
Zr133       O136   2.436       .  S
Zr133       O137   2.439       .  S
Zr133       O138   2.409       .  S
O134        C139   1.281       .  A
O135        H152   0.990       .  S
O135        H167   0.990       .  S
O136        H153   0.990       .  S
O137        H157   0.990       .  S
O137        H166   0.990       .  S
O138        C139   1.280       .  A
C139        C516   1.455       .  S
O140        H159   0.990       .  S
O140        H163   0.990       .  S
O141        H162   0.990   1_554  S
O141        H989   0.990   1_554  S
O142        C146   1.275       .  A
O143        C146   1.295       .  A
O144        H154   0.990       .  S
O145        H158   0.990       .  S
C146        C759   1.495   1_554  S
H155        O975   0.990       .  S
H156        O953   0.990   1_655  S
Zr169       O170   2.441       .  S
Zr169       O171   2.475       .  S
Zr169       O172   2.502       .  S
Zr169       O175   2.508       .  S
Zr169       O177   2.399       .  S
Zr169       O178   2.404       .  S
Zr169       O179   2.427   1_565  S
Zr169       O180   2.405   1_565  S
O170        H226   0.990       .  S
O170        H234   0.991       .  S
O171        C191   1.290       .  A
O172        C193   1.298       .  A
O173       Zr183   2.431   1_565  S
O173        C192   1.283       .  A
O174       Zr182   2.433   1_565  S
O174        C193   1.281       .  A
O175        C192   1.302       .  A
O176       Zr184   2.401       .  S
O176        C191   1.276       .  A
O177       Zr182   2.413   1_565  S
O177       Zr184   2.387       .  S
O178       Zr183   2.415   1_565  S
O178       Zr184   2.389       .  S
O178        H213   0.966       .  S
O179       Zr182   2.423       .  S
O179       Zr199   2.373       .  S
O179        H216   0.964       .  S
O180       Zr183   2.406       .  S
O180       Zr199   2.371       .  S
Zr181       O206   2.438       .  S
Zr181       O200   2.418       .  S
Zr181       O208   2.379       .  S
Zr181       O196   2.370       .  S
Zr181       O187   2.389       .  S
Zr181       O188   2.390       .  S
Zr181       O189   2.380       .  S
Zr181       O190   2.377       .  S
Zr182       O201   2.443       .  S
Zr182       O194   2.435   1_545  S
Zr182       O195   2.491       .  S
Zr182       O188   2.388       .  S
Zr182       O189   2.369       .  S
Zr183       O185   2.437       .  S
Zr183       O207   2.435   1_545  S
Zr183       O209   2.486       .  S
Zr183       O187   2.386       .  S
Zr183       O190   2.375       .  S
Zr184       O210   2.437       .  S
Zr184       O211   2.437       .  S
Zr184       O186   2.440       .  S
Zr184       O187   2.406   1_565  S
Zr184       O188   2.400   1_565  S
O185        H222   0.990       .  S
O186        H217   0.990       .  S
O186        H231   0.990       .  S
O188        H214   0.966       .  S
O189       Zr199   2.376       .  S
O190       Zr199   2.365       .  S
O190        H215   0.965       .  S
C191        C740   1.485       .  S
C192        C259   1.499       .  S
C193       C1092   1.492       .  S
O194        H230   0.990   1_565  S
O195        C197   1.295       .  A
O196        C197   1.272       .  A
C197        C823   1.494       .  S
O198       Zr199   2.435       .  S
O198        H227   0.990       .  S
Zr199       O202   2.435       .  S
Zr199       O203   2.439       .  S
Zr199       O204   2.396       .  S
O200        C205   1.281       .  A
O201        H233   0.991       .  S
O201       H1052   0.990       .  S
O202        H219   0.990       .  S
O203        H223   0.990       .  S
O203        H232   0.990       .  S
O204        C205   1.279       .  A
C205        C500   1.458       .  S
O206        H225   0.990       .  S
O206        H229   0.990       .  S
O207        H221   0.990       .  S
O207        H228   0.990       .  S
O208        C212   1.272       .  A
O209        C212   1.294       .  A
O210        H220   0.990       .  S
O211        H224   0.990       .  S
C212        C804   1.481       .  S
H218       O1035   0.990       .  S
Zr235       O236   2.440       .  S
Zr235       O237   2.490   1_565  S
Zr235       O238   2.517       .  S
Zr235       O241   2.501       .  S
Zr235       O243   2.392       .  S
Zr235       O244   2.402       .  S
Zr235       O245   2.422       .  S
Zr235       O246   2.406       .  S
O236        H292   0.990   1_565  S
O236        H300   0.990       .  S
O237        C257   1.292       .  A
O238        C259   1.302       .  A
O239       Zr249   2.436       .  S
O239        C258   1.284       .  A
O240       Zr248   2.421       .  S
O240        C259   1.280       .  A
O241        C258   1.301       .  A
O242       Zr250   2.413       .  S
O242        C257   1.280   1_565  A
O243       Zr248   2.419       .  S
O243       Zr250   2.384       .  S
O244       Zr249   2.409       .  S
O244       Zr250   2.383       .  S
O244        H279   0.966       .  S
O245       Zr248   2.412       .  S
O245       Zr265   2.394       .  S
O245        H282   0.965       .  S
O246       Zr249   2.407       .  S
O246       Zr265   2.377       .  S
Zr247       O272   2.440       .  S
Zr247       O266   2.426       .  S
Zr247       O274   2.368       .  S
Zr247       O262   2.389       .  S
Zr247       O253   2.397       .  S
Zr247       O254   2.394       .  S
Zr247       O255   2.367       .  S
Zr247       O256   2.380       .  S
Zr248       O267   2.439       .  S
Zr248       O260   2.435       .  S
Zr248       O261   2.477       .  S
Zr248       O254   2.393       .  S
Zr248       O255   2.373       .  S
Zr249       O251   2.438   1_554  S
Zr249       O273   2.438       .  S
Zr249       O275   2.492       .  S
Zr249       O253   2.381       .  S
Zr249       O256   2.371       .  S
Zr250       O276   2.438       .  S
Zr250       O277   2.435       .  S
Zr250       O252   2.436       .  S
Zr250       O253   2.403       .  S
Zr250       O254   2.409       .  S
O251       H1122   0.990       .  S
O252        H283   0.990       .  S
O252        H297   0.990       .  S
O254        H280   0.966       .  S
O255       Zr265   2.368       .  S
O256       Zr265   2.373       .  S
O256        H281   0.965       .  S
C257        C692   1.505       .  S
C258       C1027   1.492   1_554  S
O260        H296   0.990       .  S
O261        C263   1.292       .  A
O262        C263   1.277       .  A
C263        C679   1.494       .  S
O264       Zr265   2.437       .  S
O264        H293   0.990       .  S
Zr265       O268   2.436       .  S
Zr265       O269   2.437       .  S
Zr265       O270   2.422       .  S
O266        C271   1.282       .  A
O267        H284   0.990       .  S
O267        H299   0.990       .  S
O268        H285   0.990       .  S
O269        H289   0.990       .  S
O269        H298   0.990       .  S
O270        C271   1.282       .  A
C271        C484   1.464       .  S
O272        H291   0.990       .  S
O272        H295   0.990       .  S
O273        H294   0.990   1_554  S
O273       H1121   0.990   1_554  S
O274        C278   1.269       .  A
O275        C278   1.297       .  A
O276        H286   0.991       .  S
O277        H290   0.989       .  S
C278        C663   1.487   1_554  S
H287       O1107   0.990       .  S
H288       O1085   0.990       .  S
C301        C471   1.468       .  S
C301        C302   1.398       .  A
C301        C306   1.399       .  A
C302        C303   1.398       .  A
C302        H307   1.084       .  S
C303        C535   1.469       .  S
C303        C304   1.398       .  A
C304        C305   1.400       .  A
C304        H308   1.084       .  S
C305        C503   1.464       .  S
C305        C306   1.394       .  A
C306        H309   1.083       .  S
C310        C455   1.467       .  S
C310        C311   1.401       .  A
C310        C315   1.396       .  A
C311        C312   1.398       .  A
C311        H316   1.084       .  S
C312        C487   1.468       .  S
C312        C313   1.399       .  A
C313        C314   1.395       .  A
C313        H317   1.084       .  S
C314        C519   1.461       .  S
C314        C315   1.399       .  A
C315        H318   1.084       .  S
Zr319       O320   2.440       .  S
Zr319       O321   2.484       .  S
Zr319       O322   2.504       .  S
Zr319       O325   2.503       .  S
Zr319       O327   2.396       .  S
Zr319       O328   2.399       .  S
Zr319       O329   2.426       .  S
Zr319       O330   2.396       .  S
O320        H376   0.990       .  S
O320        H384   0.990       .  S
O321        C341   1.291       .  A
O322        C343   1.300       .  A
O323       Zr333   2.433       .  S
O323        C342   1.284       .  A
O324       Zr332   2.422       .  S
O324        C343   1.281       .  A
O325        C342   1.300       .  A
O326       Zr334   2.424       .  S
O326        C341   1.281       .  A
O327       Zr332   2.422       .  S
O327       Zr334   2.385       .  S
O328       Zr333   2.405       .  S
O328       Zr334   2.387       .  S
O328        H363   0.965       .  S
O329       Zr332   2.414       .  S
O329       Zr349   2.390       .  S
O329        H366   0.965       .  S
O330       Zr333   2.393       .  S
O330       Zr349   2.367       .  S
Zr331       O356   2.440       .  S
Zr331       O350   2.424       .  S
Zr331       O358   2.378       .  S
Zr331       O346   2.378       .  S
Zr331       O337   2.391       .  S
Zr331       O338   2.396       .  S
Zr331       O339   2.372       .  S
Zr331       O340   2.376       .  S
Zr332       O351   2.438       .  S
Zr332       O344   2.436       .  S
Zr332       O345   2.485       .  S
Zr332       O338   2.392       .  S
Zr332       O339   2.368       .  S
Zr333       O335   2.435   1_554  S
Zr333       O357   2.436       .  S
Zr333       O359   2.477       .  S
Zr333       O337   2.381       .  S
Zr333       O340   2.378       .  S
Zr334       O360   2.436       .  S
Zr334       O361   2.435       .  S
Zr334       O336   2.438       .  S
Zr334       O337   2.405       .  S
Zr334       O338   2.408       .  S
O335       H1206   0.990       .  S
O336        H367   0.990       .  S
O336        H381   0.990       .  S
O338        H364   0.966       .  S
O339       Zr349   2.372       .  S
O340       Zr349   2.380       .  S
O340        H365   0.965       .  S
C341        C788   1.495       .  S
C342       C1243   1.490   1_554  S
C343        C408   1.493       .  S
O344        H380   0.990       .  S
O345        C347   1.294       .  A
O346        C347   1.274       .  A
C347        C580   1.482       .  S
O348       Zr349   2.439       .  S
O348        H377   0.990       .  S
Zr349       O352   2.437       .  S
Zr349       O353   2.439       .  S
Zr349       O354   2.412       .  S
O350        C355   1.282       .  A
O351        H368   0.990       .  S
O351        H383   0.990       .  S
O352        H369   0.990       .  S
O353        H373   0.990       .  S
O353        H382   0.990       .  S
O354        C355   1.281       .  A
C355        C452   1.466       .  S
O356        H375   0.990       .  S
O356        H379   0.990       .  S
O357        H378   0.990   1_554  S
O357       H1205   0.990   1_554  S
O358        C362   1.274       .  A
O359        C362   1.292       .  A
O360        H370   0.990       .  S
O361        H374   0.990       .  S
C362        C567   1.484   1_554  S
H371       O1191   0.990       .  S
H372       O1169   0.990       .  S
Zr385       O386   2.440       .  S
Zr385       O387   2.498       .  S
Zr385       O388   2.516       .  S
Zr385       O391   2.510       .  S
Zr385       O393   2.401       .  S
Zr385       O394   2.400       .  S
Zr385       O395   2.434       .  S
Zr385       O396   2.416       .  S
O386        H442   0.990       .  S
O386        H450   0.990       .  S
O387        C407   1.294       .  A
O388        C409   1.302       .  A
O389       Zr399   2.407       .  S
O389        C408   1.279       .  A
O390       Zr398   2.438       .  S
O390        C409   1.283       .  A
O391        C408   1.302       .  A
O392       Zr400   2.403       .  S
O392        C407   1.279       .  A
O393       Zr398   2.424       .  S
O393       Zr400   2.391       .  S
O394       Zr399   2.416       .  S
O394       Zr400   2.379       .  S
O394        H429   0.966       .  S
O395       Zr398   2.421       .  S
O395       Zr415   2.373       .  S
O395        H432   0.964       .  S
O396       Zr399   2.408       .  S
O396       Zr415   2.383       .  S
Zr397       O422   2.436       .  S
Zr397       O416   2.408       .  S
Zr397       O424   2.370       .  S
Zr397       O412   2.353       .  S
Zr397       O403   2.381       .  S
Zr397       O404   2.386       .  S
Zr397       O405   2.372       .  S
Zr397       O406   2.372       .  S
Zr398       O417   2.441       .  S
Zr398       O410   2.436       .  S
Zr398       O411   2.503       .  S
Zr398       O404   2.386       .  S
Zr398       O405   2.367       .  S
Zr399       O401   2.438       .  S
Zr399       O423   2.433       .  S
Zr399       O425   2.482       .  S
Zr399       O403   2.379       .  S
Zr399       O406   2.367       .  S
Zr400       O426   2.438       .  S
Zr400       O427   2.437       .  S
Zr400       O402   2.436       .  S
Zr400       O403   2.396       .  S
Zr400       O404   2.400       .  S
O401        H438   0.990       .  S
O402        H433   0.990       .  S
O402        H447   0.990       .  S
O404        H430   0.966       .  S
O405       Zr415   2.373       .  S
O406       Zr415   2.364       .  S
O406        H431   0.965       .  S
C407        C647   1.510       .  S
C409       C1176   1.499       .  S
O410        H446   0.990       .  S
O411        C413   1.297       .  A
O412        C413   1.269       .  A
C413        C631   1.475       .  S
O414       Zr415   2.436       .  S
O414        H443   0.990       .  S
Zr415       O418   2.435       .  S
Zr415       O419   2.437       .  S
Zr415       O420   2.415       .  S
O416        C421   1.279       .  A
O417        H449   0.990       .  S
O417       H1268   0.990       .  S
O418        H435   0.990       .  S
O419        H439   0.990       .  S
O419        H448   0.990       .  S
O420        C421   1.282       .  A
C421        C468   1.460       .  S
O422        H441   0.990       .  S
O422        H445   0.989       .  S
O423        H437   0.990       .  S
O423        H444   0.990       .  S
O424        C428   1.271       .  A
O425        C428   1.294       .  A
O426        H436   0.990       .  S
O427        H440   0.990       .  S
C428        C612   1.479       .  S
H434       O1251   0.990       .  S
C451        C452   1.400       .  A
C451        C456   1.397       .  A
C451        H458   1.084       .  S
C452        C453   1.416       .  A
C453        C454   1.404       .  A
C453        C460   1.516       .  S
C454        C455   1.400       .  A
C454        H459   1.083       .  S
C455        C456   1.415       .  A
C456        C457   1.518       .  S
C457        F461   1.382       .  S
C457        F462   1.385       .  S
C457        F463   1.383       .  S
C460        F464   1.382       .  S
C460        F465   1.381       .  S
C460        F466   1.385       .  S
C467        C468   1.401       .  A
C467        C472   1.399       .  A
C467        H474   1.084       .  S
C468        C469   1.414       .  A
C469        C470   1.399       .  A
C469        C476   1.517       .  S
C470        C471   1.401       .  A
C470        H475   1.083       .  S
C471        C472   1.415       .  A
C472        C473   1.519       .  S
C473        F477   1.384       .  S
C473        F478   1.384       .  S
C473        F479   1.382       .  S
C476        F480   1.383       .  S
C476        F481   1.382       .  S
C476        F482   1.385       .  S
C483        C484   1.404       .  A
C483        C488   1.406       .  A
C483        H490   1.084       .  S
C484        C485   1.412       .  A
C485        C486   1.399       .  A
C485        C492   1.517       .  S
C486        C487   1.401       .  A
C486        H491   1.084       .  S
C487        C488   1.414       .  A
C488        C489   1.519   1_554  S
C489        F493   1.382       .  S
C489        F494   1.381       .  S
C489        F495   1.383       .  S
C492        F496   1.382       .  S
C492        F497   1.382       .  S
C492        F498   1.384       .  S
C499        C500   1.397       .  A
C499        C504   1.394       .  A
C499        H506   1.079       .  S
C500        C501   1.412       .  A
C501        C502   1.404       .  A
C501        C508   1.516       .  S
C502        C503   1.403       .  A
C502        H507   1.083       .  S
C503        C504   1.413       .  A
C504        C505   1.520       .  S
C505        F509   1.386       .  S
C505        F510   1.382       .  S
C505        F511   1.381       .  S
C508        F512   1.382       .  S
C508        F513   1.383       .  S
C508        F514   1.384       .  S
C515        C516   1.402       .  A
C515        C520   1.401       .  A
C515        H522   1.084       .  S
C516        C517   1.410       .  A
C517        C518   1.399       .  A
C517        C524   1.517       .  S
C518        C519   1.400       .  A
C518        H523   1.084       .  S
C519        C520   1.410       .  A
C520        C521   1.516       .  S
C521        F525   1.385   1_554  S
C521        F526   1.383       .  S
C521        F527   1.383   1_554  S
C524        F528   1.383       .  S
C524        F529   1.382       .  S
C524        F530   1.385       .  S
C531        C532   1.402       .  A
C531        C536   1.405       .  A
C531        H538   1.084       .  S
C532        C533   1.418       .  A
C533        C534   1.400       .  A
C533        C540   1.512       .  S
C534        C535   1.397       .  A
C534        H539   1.083       .  S
C535        C536   1.412       .  A
C536        C537   1.516       .  S
C537        F541   1.385       .  S
C537        F542   1.382       .  S
C537        F543   1.384       .  S
C540        F544   1.376       .  S
C540        F545   1.382       .  S
C540        F546   1.385       .  S
C547        C548   1.404       .  A
C547        C552   1.421       .  A
C547        H554   1.083       .  S
C548        C549   1.418       .  A
C549        C550   1.413       .  A
C549        C556   1.518       .  S
C550        C551   1.409       .  A
C550        H555   1.082       .  S
C551        C552   1.427       .  A
C552        C553   1.517       .  S
C553        F557   1.385       .  S
C553        F558   1.384       .  S
C553        F559   1.381       .  S
C556        F560   1.384       .  S
C556        F561   1.380       .  S
C556        F562   1.385       .  S
C563        C564   1.410       .  A
C563        C568   1.405       .  A
C563        H570   1.083       .  S
C564        C565   1.413       .  A
C565       C1400   1.415       .  A
C565        C572   1.516       .  S
C566        C567   1.415       .  A
C566       C1399   1.414       .  A
C566        H571   1.083   1_556  S
C567       C1402   1.413       .  A
C568       C1401   1.416       .  A
C568        C569   1.522       .  S
C569        F573   1.384       .  S
C569        F574   1.382       .  S
C569        F575   1.381       .  S
C572        F576   1.384       .  S
C572        F577   1.382       .  S
C572       F1412   1.384       .  S
F578       C1406   1.384   1_554  S
C579        C580   1.408       .  A
C579        C584   1.408       .  A
C579        H586   1.083       .  S
C580        C581   1.415       .  A
C581        C582   1.407       .  A
C581        C588   1.517       .  S
C582        C583   1.406       .  A
C582        H587   1.084       .  S
C583        C584   1.412       .  A
C584        C585   1.517       .  S
C585        F589   1.384       .  S
C585        F590   1.383       .  S
C585        F591   1.383       .  S
C588        F592   1.383       .  S
C588        F593   1.382       .  S
C588        F594   1.385       .  S
C595        C596   1.410       .  A
C595        C600   1.409       .  A
C595        H602   1.084       .  S
C596        C597   1.424       .  A
C597        C598   1.416       .  A
C597        C604   1.513       .  S
C598        C599   1.403       .  A
C598        H603   1.083       .  S
C599        C600   1.418       .  A
C600        C601   1.519       .  S
C601        F605   1.385       .  S
C601        F606   1.383       .  S
C601        F607   1.382       .  S
C604        F608   1.380       .  S
C604        F609   1.384       .  S
C604        F610   1.385       .  S
C611        C612   1.400       .  A
C611        C616   1.401       .  A
C611        H618   1.085       .  S
C612        C613   1.426       .  A
C613        C614   1.406       .  A
C613        C620   1.518       .  S
C614        C615   1.396       .  A
C614        H619   1.084       .  S
C615        C616   1.416       .  A
C616        C617   1.518       .  S
C617        F621   1.384       .  S
C617        F622   1.384       .  S
C617        F623   1.383       .  S
C620        F624   1.380       .  S
C620        F625   1.384       .  S
C620        F626   1.385       .  S
C627        C628   1.410       .  A
C627        C632   1.409       .  A
C627        H634   1.084       .  S
C628        C629   1.413       .  A
C629       C1464   1.411       .  A
C629       C1470   1.515       .  S
C630        C631   1.407       .  A
C630       C1463   1.407       .  A
C630        H635   1.084       .  S
C631       C1466   1.412       .  A
C632       C1465   1.412       .  A
C632        C633   1.518       .  S
C633        F637   1.385       .  S
C633        F638   1.383       .  S
C633        F639   1.383       .  S
C636       C1463   1.517       .  S
C636        F642   1.384       .  S
C636       F1474   1.383       .  S
C636       F1475   1.383       .  S
F640       C1470   1.384       .  S
F641       C1470   1.381       .  S
C643        C644   1.413       .  A
C643        C648   1.423       .  A
C643        H650   1.082       .  S
C644        C645   1.425       .  A
C645        C646   1.409       .  A
C645        C652   1.524       .  S
C646        C647   1.408       .  A
C646        H651   1.083       .  S
C647        C648   1.422       .  A
C648        C649   1.516       .  S
C649        F653   1.385       .  S
C649        F654   1.382       .  S
C649        F655   1.383       .  S
C652        F656   1.382       .  S
C652        F657   1.384       .  S
C652        F658   1.385       .  S
C659        C660   1.410       .  A
C659        C664   1.408       .  A
C659        H666   1.084       .  S
C660        C661   1.408       .  A
C661        C662   1.404       .  A
C661        C668   1.518       .  S
C662       C1497   1.411       .  A
C662       H1501   1.083       .  S
C663       C1496   1.397       .  A
C663       C1498   1.431       .  A
C664       C1497   1.409       .  A
C664        C665   1.516       .  S
C665        F669   1.384       .  S
C665        F671   1.382       .  S
C665       F1504   1.383       .  S
H667       C1496   1.084       .  S
C668        F672   1.382       .  S
C668        F673   1.384       .  S
C668        F674   1.383       .  S
F670       C1499   1.383       .  S
C675        C676   1.408       .  A
C675        C680   1.409       .  A
C675        H682   1.084       .  S
C676        C677   1.409       .  A
C677        C678   1.407       .  A
C677        C684   1.517       .  S
C678        C679   1.414       .  A
C678        H683   1.083       .  S
C679        C680   1.419       .  A
C680        C681   1.518       .  S
C681        F685   1.385       .  S
C681        F686   1.382       .  S
C681        F687   1.382       .  S
C684        F688   1.383       .  S
C684        F689   1.383       .  S
C684        F690   1.384       .  S
C691        C692   1.403       .  A
C691        C696   1.409       .  A
C691        H698   1.083       .  S
C692        C693   1.420       .  A
C693        C694   1.422       .  A
C693        C700   1.517       .  S
C694        C695   1.414       .  A
C694        H699   1.082       .  S
C695        C696   1.431       .  A
C696        C697   1.524       .  S
C697        F701   1.385       .  S
C697        F702   1.382       .  S
C697        F703   1.384       .  S
C700        F704   1.383       .  S
C700        F705   1.383       .  S
C700        F706   1.385       .  S
C707        C708   1.407       .  A
C707        C712   1.403       .  A
C707        H714   1.084       .  S
C708        C709   1.409       .  A
C709        C710   1.405       .  A
C709        C716   1.515       .  S
C710        C711   1.407       .  A
C710        H715   1.084       .  S
C711        C712   1.409       .  A
C712        C713   1.517       .  S
C713        F717   1.384       .  S
C713        F718   1.382       .  S
C713        F719   1.383       .  S
C716        F720   1.383       .  S
C716        F721   1.382       .  S
C716        F722   1.385       .  S
C723        C724   1.409       .  A
C723        C728   1.409       .  A
C723        H730   1.084       .  S
C724        C725   1.411       .  A
C725        C726   1.408       .  A
C725        C732   1.515       .  S
C726       C1561   1.411       .  A
C726       H1565   1.083   1_554  S
C727       C1560   1.412       .  A
C727       C1562   1.419       .  A
C728       C1561   1.417       .  A
C728        C729   1.520       .  S
C729        F733   1.384       .  S
C729        F735   1.382       .  S
C729       F1568   1.382       .  S
H731       C1560   1.083       .  S
C732        F736   1.383       .  S
C732        F737   1.383       .  S
C732        F738   1.385   1_554  S
F734       C1563   1.381       .  S
C739        C740   1.400       .  A
C739        C744   1.409       .  A
C739        H746   1.084       .  S
C740        C741   1.413       .  A
C741        C742   1.417       .  A
C741        C748   1.517       .  S
C742        C743   1.412       .  A
C742        H747   1.083       .  S
C743        C744   1.427       .  A
C744        C745   1.521       .  S
C745        F749   1.386       .  S
C745        F750   1.383       .  S
C745        F751   1.382       .  S
C748        F752   1.384       .  S
C748        F753   1.383       .  S
C748        F754   1.384       .  S
C755        C756   1.411       .  A
C755        C760   1.409       .  A
C755        H762   1.084       .  S
C756        C757   1.410       .  A
C757       C1592   1.408       .  A
C757       C1598   1.518       .  S
C758        C759   1.417   1_554  A
C758       C1591   1.410   1_554  A
C758        H763   1.083       .  S
C759       C1594   1.414       .  A
C760       C1593   1.407       .  A
C760        C761   1.516       .  S
C761        F765   1.383       .  S
C761        F766   1.384       .  S
C761        F767   1.383       .  S
C764       C1591   1.517   1_554  S
C764        F768   1.383       .  S
C764        F770   1.385       .  S
C764       F1603   1.383   1_554  S
F769       C1598   1.383       .  S
C771        C772   1.398       .  A
C771        C776   1.403       .  A
C771        H778   1.082       .  S
C772        C773   1.416       .  A
C773        C774   1.406       .  A
C773        C780   1.517       .  S
C774        C775   1.403       .  A
C774        H779   1.084       .  S
C775        C776   1.422       .  A
C776        C777   1.520       .  S
C777        F781   1.385       .  S
C777        F782   1.384       .  S
C777        F783   1.381       .  S
C780        F784   1.382       .  S
C780        F785   1.383       .  S
C780        F786   1.385       .  S
C787        C788   1.400       .  A
C787        C792   1.414       .  A
C787        H794   1.083       .  S
C788        C789   1.416       .  A
C789        C790   1.417       .  A
C789        C796   1.517       .  S
C790        C791   1.415       .  A
C790        H795   1.082       .  S
C791        C792   1.435       .  A
C792        C793   1.522       .  S
C793        F797   1.385       .  S
C793        F798   1.383       .  S
C793        F799   1.383       .  S
C796        F800   1.383       .  S
C796        F801   1.383       .  S
C796        F802   1.385       .  S
C803        C804   1.400       .  A
C803        C808   1.401       .  A
C803        H810   1.085       .  S
C804        C805   1.425       .  A
C805        C806   1.408       .  A
C805        C812   1.517       .  S
C806        C807   1.397       .  A
C806        H811   1.083       .  S
C807        C808   1.420       .  A
C808        C809   1.521       .  S
C809        F813   1.383       .  S
C809        F814   1.383       .  S
C809        F815   1.382       .  S
C812        F816   1.381       .  S
C812        F817   1.383       .  S
C812        F818   1.385       .  S
C819        C820   1.408       .  A
C819        C824   1.406       .  A
C819        H826   1.084       .  S
C820        C821   1.410       .  A
C821       C1656   1.407   1_554  A
C821        C828   1.517       .  S
C822        C823   1.415       .  A
C822       C1655   1.409       .  A
C822        H827   1.083       .  S
C823       C1658   1.418       .  A
C824       C1657   1.414       .  A
C824        C825   1.518       .  S
C825        F829   1.384       .  S
C825        F830   1.382   1_554  S
C825        F831   1.382       .  S
C828        F833   1.383       .  S
C828       F1666   1.383       .  S
C828       F1668   1.385   1_554  S
F832       C1662   1.383       .  S
F834       C1662   1.384       .  S
C835        N836   1.370       .  A
C835        N840   1.376       .  A
C835       C1625   1.511       .  S
N836        C837   1.361       .  A
C837        N838   1.338       .  A
C837       C1641   1.478       .  S
N838        C839   1.341       .  A
C839        N840   1.368       .  A
C839       C1654   1.478       .  S
C841        N842   1.369       .  A
C841        N846   1.375       .  A
C841       C1577   1.508       .  S
N842        C843   1.361       .  A
C843        N844   1.341       .  A
C843       C1606   1.472       .  S
N844        C845   1.342       .  A
C845        N846   1.368       .  A
C845       C1590   1.483       .  S
C847        N848   1.370       .  A
C847        N852   1.376       .  A
C847       C1529   1.515       .  S
N848        C849   1.360       .  A
C849        N850   1.337       .  A
C849       C1545   1.473       .  S
N850        C851   1.341       .  A
C851        N852   1.369       .  A
C851       C1558   1.475       .  S
C853        N854   1.372       .  A
C853        N858   1.374       .  A
C853       C1478   1.500       .  S
N854        C855   1.364       .  A
C855        N856   1.340       .  A
C855       C1510   1.471       .  S
N856        C857   1.338       .  A
C857        N858   1.365       .  A
C857       C1494   1.484       .  S
C859        N860   1.372       .  A
C859        N864   1.376       .  A
C859       C1430   1.513       .  S
N860        C861   1.363       .  A
C861        N862   1.338       .  A
C861       C1462   1.465       .  S
N862        C863   1.336       .  A
C863        N864   1.366       .  A
C863       C1449   1.473       .  S
C865        N866   1.371       .  A
C865        N870   1.377       .  A
C865       C1385   1.505       .  S
N866        C867   1.355       .  A
C867        N868   1.334       .  A
C867       C1417   1.460       .  S
N868        C869   1.340       .  A
C869        N870   1.369       .  A
C869       C1398   1.484       .  S
Zr871       O872   2.440       .  S
Zr871       O873   2.482       .  S
Zr871       O874   2.507       .  S
Zr871       O877   2.493       .  S
Zr871       O879   2.391       .  S
Zr871       O880   2.403       .  S
Zr871       O881   2.419       .  S
Zr871       O882   2.403       .  S
O872        H928   0.990       .  S
O872        H936   0.991       .  S
O873        C893   1.291   1_655  A
O874        C895   1.300       .  A
O875       Zr885   2.448       .  S
O875        C894   1.285       .  A
O876       Zr884   2.408   1_554  S
O876        C895   1.278   1_554  A
O877        C894   1.298       .  A
O878       Zr886   2.410       .  S
O878        C893   1.279   1_655  A
O879       Zr884   2.412       .  S
O879       Zr886   2.381       .  S
O880       Zr885   2.408       .  S
O880       Zr886   2.395       .  S
O880        H915   0.965       .  S
O881       Zr884   2.411       .  S
O881       Zr901   2.385       .  S
O881        H918   0.965       .  S
O882       Zr885   2.399       .  S
O882       Zr901   2.373       .  S
Zr883       O908   2.441       .  S
Zr883       O902   2.410       .  S
Zr883       O910   2.372       .  S
Zr883       O898   2.385       .  S
Zr883       O889   2.394       .  S
Zr883       O890   2.387       .  S
Zr883       O891   2.374       .  S
Zr883       O892   2.379       .  S
Zr884       O903   2.440   1_556  S
Zr884       O896   2.435   1_556  S
Zr884       O897   2.474       .  S
Zr884       O890   2.384       .  S
Zr884       O891   2.372       .  S
Zr885       O887   2.439       .  S
Zr885       O909   2.437       .  S
Zr885       O911   2.482       .  S
Zr885       O889   2.395       .  S
Zr885       O892   2.376       .  S
Zr886       O912   2.434       .  S
Zr886       O913   2.437       .  S
Zr886       O888   2.440       .  S
Zr886       O889   2.407       .  S
Zr886       O890   2.399       .  S
O887        H924   0.990       .  S
O888        H919   0.990       .  S
O888        H933   0.990       .  S
O890        H916   0.966       .  S
O891       Zr901   2.375       .  S
O892       Zr901   2.361       .  S
O892        H917   0.965       .  S
C893       C1382   1.486       .  S
C894        C961   1.495       .  S
O896        H932   0.990       .  S
O897        C899   1.292       .  A
O898        C899   1.276       .  A
C899       C1561   1.488   1_556  S
O900       Zr901   2.435       .  S
O900        H929   0.990       .  S
Zr901       O904   2.435       .  S
Zr901       O905   2.440       .  S
Zr901       O906   2.421       .  S
O902        C907   1.279       .  A
O903        H935   0.990       .  S
O904        H921   0.990       .  S
O905        H925   0.990       .  S
O905        H934   0.990       .  S
O906        C907   1.283       .  A
C907       C1366   1.463       .  S
O908        H927   0.990       .  S
O908        H931   0.990       .  S
O909        H923   0.990       .  S
O909        H930   0.990       .  S
O910        C914   1.273       .  A
O911        C914   1.292       .  A
O912        H922   0.990       .  S
O913        H926   0.990       .  S
C914       C1542   1.475       .  S
Zr937       O938   2.440       .  S
Zr937       O939   2.483       .  S
Zr937       O940   2.507       .  S
Zr937       O943   2.504       .  S
Zr937       O945   2.396       .  S
Zr937       O946   2.399       .  S
Zr937       O947   2.429       .  S
Zr937       O948   2.405       .  S
O938        H994   0.990       .  S
O938       H1002   0.990       .  S
O939        C959   1.292       .  A
O940        C961   1.299       .  A
O941       Zr951   2.429       .  S
O941        C960   1.282       .  A
O942       Zr950   2.428   1_655  S
O942        C961   1.282       .  A
O943        C960   1.301       .  A
O944       Zr952   2.420       .  S
O944        C959   1.280       .  A
O945       Zr950   2.419   1_655  S
O945       Zr952   2.385       .  S
O946       Zr951   2.417       .  S
O946       Zr952   2.388       .  S
O946        H981   0.966       .  S
O947       Zr950   2.419   1_655  S
O947       Zr967   2.384   1_655  S
O947        H984   0.965       .  S
O948       Zr951   2.412       .  S
O948       Zr967   2.378   1_655  S
Zr949       O974   2.440       .  S
Zr949       O968   2.423       .  S
Zr949       O976   2.357       .  S
Zr949       O964   2.354       .  S
Zr949       O955   2.386       .  S
Zr949       O956   2.388       .  S
Zr949       O957   2.371       .  S
Zr949       O958   2.371       .  S
Zr950       O969   2.441       .  S
Zr950       O962   2.435   1_455  S
Zr950       O963   2.492       .  S
Zr950       O956   2.382       .  S
Zr950       O957   2.369       .  S
Zr951       O953   2.439   1_655  S
Zr951       O975   2.437       .  S
Zr951       O977   2.507   1_655  S
Zr951       O955   2.379   1_655  S
Zr951       O958   2.365   1_655  S
Zr952       O978   2.436       .  S
Zr952       O979   2.437       .  S
Zr952       O954   2.435       .  S
Zr952       O955   2.409   1_655  S
Zr952       O956   2.401   1_655  S
O954        H985   0.990       .  S
O954        H999   0.990       .  S
O956        H982   0.966       .  S
O957       Zr967   2.369       .  S
O958       Zr967   2.366       .  S
O958        H983   0.964       .  S
C959       C1433   1.498       .  S
O962        H998   0.990       .  S
O963        C965   1.296       .  A
O964        C965   1.267       .  A
C965       C1609   1.486       .  S
O966       Zr967   2.434       .  S
O966        H995   0.990       .  S
Zr967       O970   2.435       .  S
Zr967       O971   2.437       .  S
Zr967       O972   2.412       .  S
O968        C973   1.282       .  A
O969        H986   0.990       .  S
O969       H1001   0.990       .  S
O970        H987   0.990       .  S
O971        H991   0.990       .  S
O971       H1000   0.990       .  S
O972        C973   1.281       .  A
C973       C1350   1.463       .  S
O974        H993   0.990       .  S
O974        H997   0.990       .  S
O975        H996   0.990       .  S
O976        C980   1.270       .  A
O977        C980   1.298       .  A
O978        H988   0.990       .  S
O979        H992   0.990       .  S
C980       C1593   1.479       .  S
Zr1003     O1004   2.440       .  S
Zr1003     O1005   2.483       .  S
Zr1003     O1006   2.503       .  S
Zr1003     O1009   2.494       .  S
Zr1003     O1011   2.391       .  S
Zr1003     O1012   2.406       .  S
Zr1003     O1013   2.423   1_565  S
Zr1003     O1014   2.407   1_565  S
O1004      H1060   0.990       .  S
O1004      H1068   0.991       .  S
O1005      C1025   1.292       .  A
O1006      C1027   1.298       .  A
O1007     Zr1017   2.431   1_565  S
O1007      C1026   1.284       .  A
O1008     Zr1016   2.423   1_565  S
O1008      C1027   1.280       .  A
O1009      C1026   1.298       .  A
O1010     Zr1018   2.405       .  S
O1010      C1025   1.278       .  A
O1011     Zr1016   2.413   1_565  S
O1011     Zr1018   2.390       .  S
O1012     Zr1017   2.417   1_565  S
O1012     Zr1018   2.387       .  S
O1012      H1047   0.966       .  S
O1013     Zr1016   2.417       .  S
O1013     Zr1033   2.382       .  S
O1013      H1050   0.965       .  S
O1014     Zr1017   2.406       .  S
O1014     Zr1033   2.369       .  S
Zr1015     O1040   2.439       .  S
Zr1015     O1034   2.401       .  S
Zr1015     O1042   2.376       .  S
Zr1015     O1030   2.361       .  S
Zr1015     O1021   2.383       .  S
Zr1015     O1022   2.385       .  S
Zr1015     O1023   2.375       .  S
Zr1015     O1024   2.382       .  S
Zr1016     O1035   2.442   1_556  S
Zr1016     O1028   2.433   1_546  S
Zr1016     O1029   2.485       .  S
Zr1016     O1022   2.386       .  S
Zr1016     O1023   2.366       .  S
Zr1017     O1019   2.438       .  S
Zr1017     O1041   2.434   1_545  S
Zr1017     O1043   2.493       .  S
Zr1017     O1021   2.380       .  S
Zr1017     O1024   2.375       .  S
Zr1018     O1044   2.436       .  S
Zr1018     O1045   2.438       .  S
Zr1018     O1020   2.436       .  S
Zr1018     O1021   2.399   1_565  S
Zr1018     O1022   2.399   1_565  S
O1019      H1056   0.990       .  S
O1020      H1051   0.990       .  S
O1020      H1065   0.990       .  S
O1022      H1048   0.966       .  S
O1023     Zr1033   2.372       .  S
O1024     Zr1033   2.372       .  S
O1024      H1049   0.965       .  S
C1025      C1574   1.490       .  S
C1026      C1093   1.491       .  S
O1028      H1064   0.990       .  S
O1029      C1031   1.294       .  A
O1030      C1031   1.271       .  A
C1031      C1657   1.480   1_556  S
O1032     Zr1033   2.435       .  S
O1032      H1061   0.990       .  S
Zr1033     O1036   2.436       .  S
Zr1033     O1037   2.439       .  S
Zr1033     O1038   2.396       .  S
O1034      C1039   1.277       .  A
O1035      H1067   0.990       .  S
O1036      H1053   0.990       .  S
O1037      H1057   0.990       .  S
O1037      H1066   0.990       .  S
O1038      C1039   1.278       .  A
C1039      C1334   1.446       .  S
O1040      H1059   0.990       .  S
O1040      H1063   0.990       .  S
O1041      H1055   0.990       .  S
O1041      H1062   0.990       .  S
O1042      C1046   1.271       .  A
O1043      C1046   1.296       .  A
O1044      H1054   0.990       .  S
O1045      H1058   0.990       .  S
C1046      C1638   1.486       .  S
Zr1069     O1070   2.442       .  S
Zr1069     O1071   2.491   1_565  S
Zr1069     O1072   2.498       .  S
Zr1069     O1075   2.499       .  S
Zr1069     O1077   2.393       .  S
Zr1069     O1078   2.399       .  S
Zr1069     O1079   2.428       .  S
Zr1069     O1080   2.404       .  S
O1070      H1126   0.990   1_565  S
O1070      H1134   0.991       .  S
O1071      C1091   1.292       .  A
O1072      C1093   1.297       .  A
O1073     Zr1083   2.437       .  S
O1073      C1092   1.284       .  A
O1074     Zr1082   2.424       .  S
O1074      C1093   1.281       .  A
O1075      C1092   1.300       .  A
O1076     Zr1084   2.408   1_545  S
O1076      C1091   1.280       .  A
O1077     Zr1082   2.417       .  S
O1077     Zr1084   2.381       .  S
O1078     Zr1083   2.411       .  S
O1078     Zr1084   2.387       .  S
O1078      H1113   0.966       .  S
O1079     Zr1082   2.417       .  S
O1079     Zr1099   2.394       .  S
O1079      H1116   0.965       .  S
O1080     Zr1083   2.402       .  S
O1080     Zr1099   2.376       .  S
Zr1081     O1106   2.442       .  S
Zr1081     O1100   2.424       .  S
Zr1081     O1108   2.368       .  S
Zr1081     O1096   2.375       .  S
Zr1081     O1087   2.391       .  S
Zr1081     O1088   2.386       .  S
Zr1081     O1089   2.372       .  S
Zr1081     O1090   2.375       .  S
Zr1082     O1101   2.439       .  S
Zr1082     O1094   2.435       .  S
Zr1082     O1095   2.488       .  S
Zr1082     O1088   2.386       .  S
Zr1082     O1089   2.374       .  S
Zr1083     O1085   2.437       .  S
Zr1083     O1107   2.436       .  S
Zr1083     O1109   2.488       .  S
Zr1083     O1087   2.387       .  S
Zr1083     O1090   2.375       .  S
Zr1084     O1110   2.438       .  S
Zr1084     O1111   2.435       .  S
Zr1084     O1086   2.438       .  S
Zr1084     O1087   2.401       .  S
Zr1084     O1088   2.402       .  S
O1086      H1117   0.990       .  S
O1086      H1131   0.990       .  S
O1088      H1114   0.966       .  S
O1089     Zr1099   2.371       .  S
O1090     Zr1099   2.369       .  S
O1090      H1115   0.964       .  S
C1091      C1526   1.509       .  S
O1094      H1130   0.990       .  S
O1095      C1097   1.295       .  A
O1096      C1097   1.273       .  A
C1097      C1513   1.483       .  S
O1098     Zr1099   2.435       .  S
O1098      H1127   0.990       .  S
Zr1099     O1102   2.437       .  S
Zr1099     O1103   2.441       .  S
Zr1099     O1104   2.415       .  S
O1100      C1105   1.281       .  A
O1101      H1118   0.990       .  S
O1101      H1133   0.990       .  S
O1102      H1119   0.990       .  S
O1103      H1123   0.990       .  S
O1103      H1132   0.990       .  S
O1104      C1105   1.282       .  A
C1105      C1318   1.470       .  S
O1106      H1125   0.990       .  S
O1106      H1129   0.990       .  S
O1107      H1128   0.990       .  S
O1108      C1112   1.271       .  A
O1109      C1112   1.293       .  A
O1110      H1120   0.990       .  S
O1111      H1124   0.990       .  S
C1112      C1497   1.476       .  S
C1135      C1305   1.470       .  S
C1135      C1136   1.404       .  A
C1135      C1140   1.396       .  A
C1136      C1137   1.405       .  A
C1136      H1141   1.084       .  S
C1137      C1369   1.470       .  S
C1137      C1138   1.394       .  A
C1138      C1139   1.396       .  A
C1138      H1142   1.085       .  S
C1139      C1337   1.455       .  S
C1139      C1140   1.391       .  A
C1140      H1143   1.083       .  S
C1144      C1289   1.460       .  S
C1144      C1145   1.397       .  A
C1144      C1149   1.391       .  A
C1145      C1146   1.399       .  A
C1145      H1150   1.084       .  S
C1146      C1321   1.477       .  S
C1146      C1147   1.407       .  A
C1147      C1148   1.398       .  A
C1147      H1151   1.083       .  S
C1148      C1353   1.463       .  S
C1148      C1149   1.395       .  A
C1149      H1152   1.085       .  S
Zr1153     O1154   2.439       .  S
Zr1153     O1155   2.494       .  S
Zr1153     O1156   2.513       .  S
Zr1153     O1159   2.519       .  S
Zr1153     O1161   2.396       .  S
Zr1153     O1162   2.399       .  S
Zr1153     O1163   2.424       .  S
Zr1153     O1164   2.398       .  S
O1154      H1210   0.990       .  S
O1154      H1218   0.990       .  S
O1155      C1175   1.294       .  A
O1156      C1177   1.302       .  A
O1157     Zr1167   2.436       .  S
O1157      C1176   1.284       .  A
O1158     Zr1166   2.433       .  S
O1158      C1177   1.283       .  A
O1159      C1176   1.303       .  A
O1160     Zr1168   2.403       .  S
O1160      C1175   1.279       .  A
O1161     Zr1166   2.413       .  S
O1161     Zr1168   2.386       .  S
O1162     Zr1167   2.410       .  S
O1162     Zr1168   2.394       .  S
O1162      H1197   0.965       .  S
O1163     Zr1166   2.412       .  S
O1163     Zr1183   2.385       .  S
O1163      H1200   0.965       .  S
O1164     Zr1167   2.398       .  S
O1164     Zr1183   2.373       .  S
Zr1165     O1190   2.443       .  S
Zr1165     O1184   2.412       .  S
Zr1165     O1192   2.395       .  S
Zr1165     O1180   2.373       .  S
Zr1165     O1171   2.387       .  S
Zr1165     O1172   2.393       .  S
Zr1165     O1173   2.377       .  S
Zr1165     O1174   2.376       .  S
Zr1166     O1185   2.439       .  S
Zr1166     O1178   2.435       .  S
Zr1166     O1179   2.475       .  S
Zr1166     O1172   2.393       .  S
Zr1166     O1173   2.372       .  S
Zr1167     O1169   2.437       .  S
Zr1167     O1191   2.439       .  S
Zr1167     O1193   2.486       .  S
Zr1167     O1171   2.384       .  S
Zr1167     O1174   2.384       .  S
Zr1168     O1194   2.436       .  S
Zr1168     O1195   2.436       .  S
Zr1168     O1170   2.438       .  S
Zr1168     O1171   2.403       .  S
Zr1168     O1172   2.391       .  S
O1170      H1201   0.990       .  S
O1170      H1215   0.990       .  S
O1172      H1198   0.966       .  S
O1173     Zr1183   2.363       .  S
O1174     Zr1183   2.376       .  S
O1174      H1199   0.963       .  S
C1175      C1622   1.502       .  S
C1177      C1242   1.501       .  S
O1178      H1214   0.990       .  S
O1179      C1181   1.292       .  A
O1180      C1181   1.274       .  A
C1181      C1414   1.473       .  S
O1182     Zr1183   2.433       .  S
O1182      H1211   0.990       .  S
Zr1183     O1186   2.437       .  S
Zr1183     O1187   2.436       .  S
Zr1183     O1188   2.409       .  S
O1184      C1189   1.279       .  A
O1185      H1202   0.990       .  S
O1185      H1217   0.990       .  S
O1186      H1203   0.990       .  S
O1187      H1207   0.990       .  S
O1187      H1216   0.990       .  S
O1188      C1189   1.280       .  A
C1189      C1286   1.466       .  S
O1190      H1209   0.990       .  S
O1190      H1213   0.990       .  S
O1191      H1212   0.990       .  S
O1192      C1196   1.276       .  A
O1193      C1196   1.293       .  A
O1194      H1204   0.990       .  S
O1195      H1208   0.990       .  S
C1196      C1401   1.491       .  S
Zr1219     O1220   2.442       .  S
Zr1219     O1221   2.497       .  S
Zr1219     O1222   2.505       .  S
Zr1219     O1225   2.517       .  S
Zr1219     O1227   2.401       .  S
Zr1219     O1228   2.399       .  S
Zr1219     O1229   2.429       .  S
Zr1219     O1230   2.414       .  S
O1220      H1276   0.990       .  S
O1220      H1284   0.990       .  S
O1221      C1241   1.294       .  A
O1222      C1243   1.299       .  A
O1223     Zr1233   2.426       .  S
O1223      C1242   1.282       .  A
O1224     Zr1232   2.427   1_554  S
O1224      C1243   1.282   1_554  A
O1225      C1242   1.303       .  A
O1226     Zr1234   2.399       .  S
O1226      C1241   1.278       .  A
O1227     Zr1232   2.417       .  S
O1227     Zr1234   2.386       .  S
O1228     Zr1233   2.413       .  S
O1228     Zr1234   2.391       .  S
O1228      H1263   0.966       .  S
O1229     Zr1232   2.418       .  S
O1229     Zr1249   2.376       .  S
O1229      H1266   0.964       .  S
O1230     Zr1233   2.407       .  S
O1230     Zr1249   2.390       .  S
Zr1231     O1256   2.437       .  S
Zr1231     O1250   2.410       .  S
Zr1231     O1258   2.382       .  S
Zr1231     O1246   2.381       .  S
Zr1231     O1237   2.394       .  S
Zr1231     O1238   2.388       .  S
Zr1231     O1239   2.373       .  S
Zr1231     O1240   2.377       .  S
Zr1232     O1251   2.439   1_556  S
Zr1232     O1244   2.435   1_556  S
Zr1232     O1245   2.489       .  S
Zr1232     O1238   2.382       .  S
Zr1232     O1239   2.372       .  S
Zr1233     O1235   2.438       .  S
Zr1233     O1257   2.437       .  S
Zr1233     O1259   2.484       .  S
Zr1233     O1237   2.386       .  S
Zr1233     O1240   2.379       .  S
Zr1234     O1260   2.437       .  S
Zr1234     O1261   2.437       .  S
Zr1234     O1236   2.437       .  S
Zr1234     O1237   2.404       .  S
Zr1234     O1238   2.389       .  S
O1235      H1272   0.990       .  S
O1236      H1267   0.990       .  S
O1236      H1281   0.990       .  S
O1238      H1264   0.966       .  S
O1239     Zr1249   2.369       .  S
O1240     Zr1249   2.362       .  S
O1240      H1265   0.965       .  S
C1241      C1481   1.513       .  S
O1244      H1280   0.990       .  S
O1245      C1247   1.296       .  A
O1246      C1247   1.274       .  A
C1247      C1465   1.482   1_556  S
O1248     Zr1249   2.434       .  S
O1248      H1277   0.990       .  S
Zr1249     O1252   2.436       .  S
Zr1249     O1253   2.437       .  S
Zr1249     O1254   2.423       .  S
O1250      C1255   1.279       .  A
O1251      H1283   0.990       .  S
O1252      H1269   0.990       .  S
O1253      H1273   0.990       .  S
O1253      H1282   0.990       .  S
O1254      C1255   1.282       .  A
C1255      C1302   1.461       .  S
O1256      H1275   0.990       .  S
O1256      H1279   0.990       .  S
O1257      H1271   0.990       .  S
O1257      H1278   0.990       .  S
O1258      C1262   1.274       .  A
O1259      C1262   1.294       .  A
O1260      H1270   0.991       .  S
O1261      H1274   0.990       .  S
C1262      C1446   1.482       .  S
C1285      C1286   1.403       .  A
C1285      C1290   1.395       .  A
C1285      H1292   1.085       .  S
C1286      C1287   1.417       .  A
C1287      C1288   1.400       .  A
C1287      C1294   1.516       .  S
C1288      C1289   1.399       .  A
C1288      H1293   1.083       .  S
C1289      C1290   1.414       .  A
C1290      C1291   1.522       .  S
C1291      F1295   1.383       .  S
C1291      F1296   1.383       .  S
C1291      F1297   1.383       .  S
C1294      F1298   1.382       .  S
C1294      F1299   1.377       .  S
C1294      F1300   1.385       .  S
C1301      C1302   1.399       .  A
C1301      C1306   1.401       .  A
C1301      H1308   1.084       .  S
C1302      C1303   1.412       .  A
C1303      C1304   1.401       .  A
C1303      C1310   1.515       .  S
C1304      C1305   1.401       .  A
C1304      H1309   1.084       .  S
C1305      C1306   1.418       .  A
C1306      C1307   1.518       .  S
C1307      F1311   1.385       .  S
C1307      F1312   1.383       .  S
C1307      F1313   1.382       .  S
C1310      F1314   1.381       .  S
C1310      F1315   1.383       .  S
C1310      F1316   1.385       .  S
C1317      C1318   1.403       .  A
C1317      C1322   1.398       .  A
C1317      H1324   1.085       .  S
C1318      C1319   1.415       .  A
C1319      C1320   1.402       .  A
C1319      C1326   1.518       .  S
C1320      C1321   1.408       .  A
C1320      H1325   1.082       .  S
C1321      C1322   1.414       .  A
C1322      C1323   1.518       .  S
C1323      F1327   1.383       .  S
C1323      F1328   1.383       .  S
C1323      F1329   1.383       .  S
C1326      F1330   1.378       .  S
C1326      F1331   1.382       .  S
C1326      F1332   1.385       .  S
C1333      C1334   1.396       .  A
C1333      C1338   1.393       .  A
C1333      H1340   1.082       .  S
C1334      C1335   1.409       .  A
C1335      C1336   1.400       .  A
C1335      C1342   1.516       .  S
C1336      C1337   1.401       .  A
C1336      H1341   1.083       .  S
C1337      C1338   1.412       .  A
C1338      C1339   1.520       .  S
C1339      F1343   1.385       .  S
C1339      F1344   1.382       .  S
C1339      F1345   1.381       .  S
C1342      F1346   1.383       .  S
C1342      F1347   1.383       .  S
C1342      F1348   1.383       .  S
C1349      C1350   1.402       .  A
C1349      C1354   1.400       .  A
C1349      H1356   1.084       .  S
C1350      C1351   1.413       .  A
C1351      C1352   1.403       .  A
C1351      C1358   1.515       .  S
C1352      C1353   1.400       .  A
C1352      H1357   1.083       .  S
C1353      C1354   1.412       .  A
C1354      C1355   1.520       .  S
C1355      F1359   1.384       .  S
C1355      F1360   1.382       .  S
C1355      F1361   1.383       .  S
C1358      F1362   1.383       .  S
C1358      F1363   1.382       .  S
C1358      F1364   1.384       .  S
C1365      C1366   1.400       .  A
C1365      C1370   1.399       .  A
C1365      H1372   1.084       .  S
C1366      C1367   1.414       .  A
C1367      C1368   1.402       .  A
C1367      C1374   1.516       .  S
C1368      C1369   1.403       .  A
C1368      H1373   1.083       .  S
C1369      C1370   1.412       .  A
C1370      C1371   1.516       .  S
C1371      F1375   1.385       .  S
C1371      F1376   1.381       .  S
C1371      F1377   1.383       .  S
C1374      F1378   1.377       .  S
C1374      F1379   1.383       .  S
C1374      F1380   1.384       .  S
C1381      C1382   1.404       .  A
C1381      C1386   1.418       .  A
C1381      H1388   1.083       .  S
C1382      C1383   1.414       .  A
C1383      C1384   1.406       .  A
C1383      C1390   1.520       .  S
C1384      C1385   1.409       .  A
C1384      H1389   1.082       .  S
C1385      C1386   1.426       .  A
C1386      C1387   1.516       .  S
C1387      F1391   1.385       .  S
C1387      F1392   1.384       .  S
C1387      F1393   1.379       .  S
C1390      F1394   1.383       .  S
C1390      F1395   1.381       .  S
C1390      F1396   1.385       .  S
C1397      C1398   1.410       .  A
C1397      C1402   1.399       .  A
C1397      H1404   1.083       .  S
C1398      C1399   1.412       .  A
C1399      C1406   1.515       .  S
C1400      C1401   1.414       .  A
C1400      H1405   1.083       .  S
C1402      C1403   1.522       .  S
C1403      F1407   1.384       .  S
C1403      F1408   1.383       .  S
C1403      F1409   1.381       .  S
C1406      F1410   1.384       .  S
C1406      F1411   1.380       .  S
C1413      C1414   1.406       .  A
C1413      C1418   1.404       .  A
C1413      H1420   1.084       .  S
C1414      C1415   1.414       .  A
C1415      C1416   1.405       .  A
C1415      C1422   1.516       .  S
C1416      C1417   1.404       .  A
C1416      H1421   1.084       .  S
C1417      C1418   1.410       .  A
C1418      C1419   1.516       .  S
C1419      F1423   1.385       .  S
C1419      F1424   1.383       .  S
C1419      F1425   1.383       .  S
C1422      F1426   1.383       .  S
C1422      F1427   1.381       .  S
C1422      F1428   1.385       .  S
C1429      C1430   1.409       .  A
C1429      C1434   1.413       .  A
C1429      H1436   1.082       .  S
C1430      C1431   1.429       .  A
C1431      C1432   1.418       .  A
C1431      C1438   1.518       .  S
C1432      C1433   1.403       .  A
C1432      H1437   1.083       .  S
C1433      C1434   1.419       .  A
C1434      C1435   1.517       .  S
C1435      F1439   1.385       .  S
C1435      F1440   1.379       .  S
C1435      F1441   1.384       .  S
C1438      F1442   1.382       .  S
C1438      F1443   1.383       .  S
C1438      F1444   1.386       .  S
C1445      C1446   1.401       .  A
C1445      C1450   1.407       .  A
C1445      H1452   1.083       .  S
C1446      C1447   1.422       .  A
C1447      C1448   1.408       .  A
C1447      C1454   1.517       .  S
C1448      C1449   1.399       .  A
C1448      H1453   1.083       .  S
C1449      C1450   1.422       .  A
C1450      C1451   1.520       .  S
C1451      F1455   1.385       .  S
C1451      F1456   1.383       .  S
C1451      F1457   1.382       .  S
C1454      F1458   1.380       .  S
C1454      F1459   1.384       .  S
C1454      F1460   1.384       .  S
C1461      C1462   1.407       .  A
C1461      C1466   1.409       .  A
C1461      H1468   1.084       .  S
C1462      C1463   1.410       .  A
C1464      C1465   1.409       .  A
C1464      H1469   1.084   1_554  S
C1466      C1467   1.516       .  S
C1467      F1471   1.385       .  S
C1467      F1472   1.383       .  S
C1467      F1473   1.383       .  S
C1470      F1476   1.384   1_554  S
C1477      C1478   1.410       .  A
C1477      C1482   1.422       .  A
C1477      H1484   1.083       .  S
C1478      C1479   1.417       .  A
C1479      C1480   1.409       .  A
C1479      C1486   1.521       .  S
C1480      C1481   1.413       .  A
C1480      H1485   1.082       .  S
C1481      C1482   1.424       .  A
C1482      C1483   1.517       .  S
C1483      F1487   1.384       .  S
C1483      F1488   1.383       .  S
C1483      F1489   1.383       .  S
C1486      F1490   1.381       .  S
C1486      F1491   1.384       .  S
C1486      F1492   1.385       .  S
C1493      C1494   1.399       .  A
C1493      C1498   1.413       .  A
C1493      H1500   1.081       .  S
C1494      C1495   1.424       .  A
C1495      C1496   1.398       .  A
C1495      C1502   1.519       .  S
C1498      C1499   1.519   1_556  S
C1499      F1503   1.385       .  S
C1499      F1505   1.383       .  S
C1502      F1506   1.384       .  S
C1502      F1507   1.381       .  S
C1502      F1508   1.384       .  S
C1509      C1510   1.407       .  A
C1509      C1514   1.408       .  A
C1509      H1516   1.084       .  S
C1510      C1511   1.410       .  A
C1511      C1512   1.409       .  A
C1511      C1518   1.517       .  S
C1512      C1513   1.412       .  A
C1512      H1517   1.083       .  S
C1513      C1514   1.414       .  A
C1514      C1515   1.519       .  S
C1515      F1519   1.385       .  S
C1515      F1520   1.382       .  S
C1515      F1521   1.381       .  S
C1518      F1522   1.383       .  S
C1518      F1523   1.384       .  S
C1518      F1524   1.384       .  S
C1525      C1526   1.406       .  A
C1525      C1530   1.407       .  A
C1525      H1532   1.083       .  S
C1526      C1527   1.422       .  A
C1527      C1528   1.425       .  A
C1527      C1534   1.517       .  S
C1528      C1529   1.415       .  A
C1528      H1533   1.082       .  S
C1529      C1530   1.427       .  A
C1530      C1531   1.523       .  S
C1531      F1535   1.385       .  S
C1531      F1536   1.381       .  S
C1531      F1537   1.383       .  S
C1534      F1538   1.383       .  S
C1534      F1539   1.383       .  S
C1534      F1540   1.385       .  S
C1541      C1542   1.410       .  A
C1541      C1546   1.404       .  A
C1541      H1548   1.083       .  S
C1542      C1543   1.408       .  A
C1543      C1544   1.407       .  A
C1543      C1550   1.517       .  S
C1544      C1545   1.412       .  A
C1544      H1549   1.084       .  S
C1545      C1546   1.409       .  A
C1546      C1547   1.518       .  S
C1547      F1551   1.384       .  S
C1547      F1552   1.381       .  S
C1547      F1553   1.383       .  S
C1550      F1554   1.384       .  S
C1550      F1555   1.383       .  S
C1550      F1556   1.384       .  S
C1557      C1558   1.409       .  A
C1557      C1562   1.410       .  A
C1557      H1564   1.084       .  S
C1558      C1559   1.411       .  A
C1559      C1560   1.409       .  A
C1559      C1566   1.518       .  S
C1562      C1563   1.522       .  S
C1563      F1567   1.385       .  S
C1563      F1569   1.382       .  S
C1566      F1570   1.383       .  S
C1566      F1571   1.384       .  S
C1566      F1572   1.384       .  S
C1573      C1574   1.400       .  A
C1573      C1578   1.411       .  A
C1573      H1580   1.083       .  S
C1574      C1575   1.415       .  A
C1575      C1576   1.420       .  A
C1575      C1582   1.517       .  S
C1576      C1577   1.413       .  A
C1576      H1581   1.083       .  S
C1577      C1578   1.427       .  A
C1578      C1579   1.520       .  S
C1579      F1583   1.385       .  S
C1579      F1584   1.383       .  S
C1579      F1585   1.382       .  S
C1582      F1586   1.384       .  S
C1582      F1587   1.383       .  S
C1582      F1588   1.384       .  S
C1589      C1590   1.412       .  A
C1589      C1594   1.408       .  A
C1589      H1596   1.084       .  S
C1590      C1591   1.408       .  A
C1592      C1593   1.412       .  A
C1592      H1597   1.083       .  S
C1594      C1595   1.517       .  S
C1595      F1599   1.385       .  S
C1595      F1600   1.383       .  S
C1595      F1601   1.381       .  S
C1598      F1602   1.383       .  S
C1598      F1604   1.384       .  S
C1605      C1606   1.398       .  A
C1605      C1610   1.408       .  A
C1605      H1612   1.082       .  S
C1606      C1607   1.417       .  A
C1607      C1608   1.402       .  A
C1607      C1614   1.514       .  S
C1608      C1609   1.400       .  A
C1608      H1613   1.084       .  S
C1609      C1610   1.431       .  A
C1610      C1611   1.524       .  S
C1611      F1615   1.384       .  S
C1611      F1616   1.384       .  S
C1611      F1617   1.382       .  S
C1614      F1618   1.383       .  S
C1614      F1619   1.384       .  S
C1614      F1620   1.384       .  S
C1621      C1622   1.406       .  A
C1621      C1626   1.412       .  A
C1621      H1628   1.083       .  S
C1622      C1623   1.418       .  A
C1623      C1624   1.420       .  A
C1623      C1630   1.517       .  S
C1624      C1625   1.413       .  A
C1624      H1629   1.082       .  S
C1625      C1626   1.428       .  A
C1626      C1627   1.523       .  S
C1627      F1631   1.385       .  S
C1627      F1632   1.382       .  S
C1627      F1633   1.384       .  S
C1630      F1634   1.383       .  S
C1630      F1635   1.383       .  S
C1630      F1636   1.384       .  S
C1637      C1638   1.398       .  A
C1637      C1642   1.399       .  A
C1637      H1644   1.085       .  S
C1638      C1639   1.429       .  A
C1639      C1640   1.412       .  A
C1639      C1646   1.519       .  S
C1640      C1641   1.400       .  A
C1640      H1645   1.083       .  S
C1641      C1642   1.421       .  A
C1642      C1643   1.519       .  S
C1643      F1647   1.384       .  S
C1643      F1648   1.383       .  S
C1643      F1649   1.382       .  S
C1646      F1650   1.382       .  S
C1646      F1651   1.383       .  S
C1646      F1652   1.385       .  S
C1653      C1654   1.409       .  A
C1653      C1658   1.409       .  A
C1653      H1660   1.083       .  S
C1654      C1655   1.409       .  A
C1655      C1662   1.516       .  S
C1656      C1657   1.411   1_556  A
C1656      H1661   1.083       .  S
C1658      C1659   1.519       .  S
C1659      F1663   1.384       .  S
C1659      F1664   1.380       .  S
C1659      F1665   1.381       .  S
C1662      F1667   1.383       .  S
