geometry optimzed in LAMMPS
_audit_creation_date              2020-11-30 
_audit_creation_method            'lammps2cif' 
_symmetry_space_group_name_H-M    'P1' 
_symmetry_Int_Tables_number       1 
_symmetry_cell_setting            triclinic 
loop_ 
_symmetry_equiv_pos_as_xyz 
  x,y,z 
_cell_length_a                    34.4395991 
_cell_length_b                    34.14094431101144 
_cell_length_c                    34.28245342055327 
_cell_angle_alpha                 89.94527903859223 
_cell_angle_beta                  90.23945312516919 
_cell_angle_gamma                 89.01141582722376 
loop_ 
_atom_site_label 
_atom_site_type_symbol 
_atom_site_fract_x 
_atom_site_fract_y 
_atom_site_fract_z 
_atom_site_charge 
N1          N  0.47287496  0.24143065  0.10269006    -0.01000
C2          C  0.51093841  0.23249653  0.11023174     0.01600
C3          C  0.53132987  0.22758021  0.07599625    -0.21300
C4          C  0.50554607  0.23391940  0.04611405    -0.21500
C5          C  0.47019252  0.24263197  0.06296849     0.01500
H6          H  0.56223275  0.22204377  0.07308274     0.15300
H7          H  0.51216058  0.23355650  0.01526515     0.15300
N8          N  0.40327861  0.19523222  0.21688838    -0.01000
C9          C  0.39443392  0.20318242  0.25482039     0.01600
C10         C  0.38821910  0.16908507  0.27527196    -0.21300
C11         C  0.39357363  0.13885224  0.24962621    -0.21500
C12         C  0.40302844  0.15534872  0.21428363     0.01500
H13         H  0.38268415  0.16638482  0.30621924     0.15300
H14         H  0.39212842  0.10792394  0.25637858     0.15300
N15         N  0.35122856  0.30451080  0.13950093    -0.01000
C16         C  0.35724086  0.34091706  0.12467062     0.01600
C17         C  0.32358589  0.35645589  0.10870752    -0.21300
C18         C  0.29542718  0.32918850  0.11408483    -0.21500
C19         C  0.31269888  0.29786669  0.13330027     0.01500
H20         H  0.31928133  0.38570798  0.09707049     0.15300
H21         H  0.26488992  0.33295526  0.10713825     0.15300
C22         C  0.38170937  0.27612847  0.14829547     0.82700
N23         N  0.41308376  0.27342201  0.12429181    -0.75600
C24         C  0.44165075  0.24610002  0.13048429     0.85200
N25         N  0.43856246  0.22087572  0.16115199    -0.75500
C26         C  0.40743744  0.22321155  0.18559430     0.85300
N27         N  0.37890003  0.25077941  0.17886495    -0.77200
O28         O  0.97437559  0.75830678  0.61552441    -0.76000
C29         C  0.05692794  0.79182064  0.70632592     0.85000
O30         O  0.92397426  0.69457282  0.72894598    -0.77100
O31         O  0.96944532  0.81050655  0.79761699    -0.78600
O32         O  0.92396253  0.87809159  0.67532609    -0.78400
O33         O  0.92780886  0.80408410  0.60889392    -0.77000
Zn34       Zn  0.98348928  0.75187339  0.67440175     1.55700
O35         O  0.96422254  0.88048755  0.72659135    -0.78400
Cd36       Cd  0.91464236  0.81831714  0.66684217     1.59700
Cd37       Cd  0.91267110  0.75410099  0.73829197     1.59600
O38         O  0.85553686  0.80839992  0.67591403    -0.78400
O39         O  0.94769886  0.78610409  0.70408630    -1.88900
Cd40       Cd  0.97851568  0.82219308  0.73848098     1.59900
O41         O  0.85376747  0.76605724  0.72562914    -0.78400
O42         O  0.03776097  0.81547505  0.72794087    -0.77000
C43         C  0.94978778  0.67630606  0.70910796     0.85500
C44         C  0.95209078  0.77965064  0.59418854     0.85200
O45         O  0.04022695  0.76608757  0.68541692    -0.76000
C46         C  0.94349239  0.89727733  0.70036966     0.86000
O47         O  0.97450149  0.69425662  0.68826955    -0.76100
C48         C  0.83669094  0.78760169  0.70005442     0.86100
C49         C  0.94728102  0.78703877  0.81558869     0.86400
O50         O  0.92392735  0.76465514  0.79754086    -0.78500
N51         N  0.44843969  0.84397844  0.72074622    -0.01000
C52         C  0.45407171  0.83710337  0.75953646     0.01600
C53         C  0.45857817  0.87174772  0.77954226    -0.21300
C54         C  0.45560277  0.90124162  0.75259696    -0.21500
C55         C  0.44922888  0.88369376  0.71700111     0.01500
H56         H  0.46232916  0.87524776  0.81070918     0.15300
H57         H  0.45714004  0.93233686  0.75844138     0.15300
N58         N  0.50023601  0.72922512  0.65305995    -0.01000
C59         C  0.49317626  0.69106207  0.64441473     0.01600
C60         C  0.52731628  0.66966818  0.64144698    -0.21300
C61         C  0.55678209  0.69505271  0.64850764    -0.21500
C62         C  0.53975439  0.73116572  0.65572105     0.01500
H63         H  0.53036850  0.63848289  0.63629944     0.15300
H64         H  0.58750015  0.68775682  0.64923351     0.15300
N65         N  0.38274546  0.79487086  0.60504885    -0.01000
C66         C  0.34444601  0.80331783  0.61164845     0.01600
C67         C  0.32397128  0.80539149  0.57704463    -0.21300
C68         C  0.34999433  0.79804369  0.54784311    -0.21500
C69         C  0.38557554  0.79158486  0.56547485     0.01500
H70         H  0.29303897  0.81051651  0.57352183     0.15300
H71         H  0.34357431  0.79699389  0.51691827     0.15300
C72         C  0.44542842  0.81533984  0.69000568     0.82700
N73         N  0.47323490  0.78666389  0.68627049    -0.75600
C74         C  0.47151651  0.76041002  0.65645078     0.85200
N75         N  0.44167114  0.76307544  0.63022713    -0.75500
C76         C  0.41368402  0.79156170  0.63360123     0.85300
N77         N  0.41581645  0.81769980  0.66354329    -0.77200
O78         O  0.39461687  0.26420018  0.74681208    -0.76000
C79         C  0.30662029  0.28960632  0.65908966     0.85000
O80         O  0.44632431  0.20048810  0.63216207    -0.77100
O81         O  0.39079367  0.31146889  0.56391035    -0.78600
O82         O  0.43351501  0.38529298  0.68032278    -0.78400
O83         O  0.43435907  0.31499216  0.75113765    -0.77000
Zn84       Zn  0.38486022  0.25536893  0.68875769     1.55700
O85         O  0.39008058  0.38313524  0.63173465    -0.78400
Cd86       Cd  0.44704108  0.32656137  0.69254524     1.59700
Cd87       Cd  0.45383955  0.26039191  0.62355078     1.59600
O88         O  0.50698808  0.31832159  0.68427704    -0.78400
O89         O  0.41633484  0.29106878  0.65734535    -1.88900
Cd90       Cd  0.38076692  0.32366541  0.62283400     1.59900
O91         O  0.51178756  0.27404164  0.63651101    -0.78400
O92         O  0.32245137  0.31349313  0.63562715    -0.77000
C93         C  0.42265639  0.18123742  0.65296439     0.85500
C94         C  0.41355500  0.28883066  0.76698759     0.85200
O95         O  0.32673156  0.26585993  0.68004240    -0.76000
C96         C  0.41114088  0.40221539  0.65549316     0.86000
O97         O  0.39790924  0.19817438  0.67521439    -0.76100
C98         C  0.52733041  0.29710029  0.66117218     0.86100
C99         C  0.41662466  0.29107808  0.54618043     0.86400
O100        O  0.44276988  0.27132238  0.56441987    -0.78500
N101        N  0.97821114  0.28912948  0.76587518    -0.01000
C102        C  0.01667719  0.29690633  0.76102274     0.01600
C103        C  0.03558813  0.29857574  0.79645997    -0.21300
C104        C  0.00847469  0.29152657  0.82445539    -0.21500
C105        C  0.97377037  0.28563553  0.80534431     0.01500
H106        H  0.06629147  0.30295514  0.80132782     0.15300
H107        H  0.01365095  0.29010937  0.85560564     0.15300
N108        N  0.92705128  0.33521139  0.64133400    -0.01000
C109        C  0.92475721  0.32451969  0.60313624     0.01600
C110        C  0.93087363  0.35615579  0.57903922    -0.21300
C111        C  0.93718425  0.38764741  0.60276595    -0.21500
C112        C  0.93489639  0.37422308  0.64061388     0.01500
H113        H  0.93122092  0.35617138  0.54745844     0.15300
H114        H  0.94254097  0.41736037  0.59341424     0.15300
N115        N  0.86060668  0.23218666  0.71230419    -0.01000
C116        C  0.86528449  0.19407691  0.72332261     0.01600
C117        C  0.82988471  0.17677361  0.72889327    -0.21300
C118        C  0.80209298  0.20469927  0.72076189    -0.21500
C119        C  0.82133175  0.23820361  0.71035385     0.01500
H120        H  0.82480077  0.14628393  0.73554391     0.15300
H121        H  0.77099303  0.20054775  0.72081558     0.15300
C122        C  0.92359449  0.31030193  0.67513512     0.82700
N123        N  0.95079533  0.31162380  0.70404679    -0.75600
C124        C  0.94876783  0.28751902  0.73562685     0.85200
N125        N  0.91887588  0.26203101  0.73815391    -0.75500
C126        C  0.89125707  0.26043395  0.70949137     0.85300
N127        N  0.89383182  0.28457037  0.67794277    -0.77200
O128        O  0.88525611  0.26844886  0.12035684    -0.76000
C129        C  0.79870289  0.24378329  0.21086910     0.85000
O130        O  0.93344710  0.33088977  0.23814394    -0.77100
O131        O  0.88753362  0.21481210  0.30323923    -0.78600
O132        O  0.92947709  0.14692769  0.18562377    -0.78400
O133        O  0.92752441  0.21842222  0.11595204    -0.77000
Zn134      Zn  0.87542560  0.27635109  0.17881012     1.55700
O135        O  0.88412556  0.14815232  0.23213420    -0.78400
Cd136      Cd  0.94040934  0.20597802  0.17445568     1.59700
Cd137      Cd  0.94481253  0.27093650  0.24473335     1.59600
O138        O  0.99985339  0.21571619  0.18199275    -0.78400
O139        O  0.90844454  0.24060080  0.21016376    -1.88900
Cd140      Cd  0.87453470  0.20721475  0.24417233     1.59900
O141        O  0.00305484  0.26056509  0.22924310    -0.78400
O142        O  0.81566209  0.21984011  0.23421420    -0.77000
C143        C  0.91016146  0.35016836  0.21598266     0.85500
C144        C  0.90576501  0.24460540  0.10008827     0.85200
O145        O  0.81774905  0.26649392  0.18870062    -0.76000
C146        C  0.90659952  0.12955518  0.20891741     0.86000
O147        O  0.88698510  0.33328076  0.19248222    -0.76100
C148        C  0.01936071  0.23817801  0.20411738     0.86100
C149        C  0.91346690  0.23399574  0.32133140     0.86400
O150        O  0.93744145  0.25580743  0.30355858    -0.78500
N151        N  0.00438496  0.80211889  0.21129422    -0.01000
C152        C  0.99562664  0.84002618  0.22044903     0.01600
C153        C  0.02885670  0.86161732  0.22439433    -0.21300
C154        C  0.05945442  0.83661632  0.21731343    -0.21500
C155        C  0.04396306  0.80055599  0.20913383     0.01500
H156        H  0.03054978  0.89272775  0.23012313     0.15300
H157        H  0.08986179  0.84416069  0.21715523     0.15300
N158        N  0.89180436  0.73109155  0.25719174    -0.01000
C159        C  0.85436167  0.72028344  0.25044457     0.01600
C160        C  0.83512413  0.71432478  0.28507322    -0.21300
C161        C  0.86086365  0.72194020  0.31441397    -0.21500
C162        C  0.89511317  0.73241226  0.29693131     0.01500
H163        H  0.80478627  0.70735838  0.28861311     0.15300
H164        H  0.85484824  0.72122476  0.34538121     0.15300
N165        N  0.96531905  0.68388832  0.14443669    -0.01000
C166        C  0.98064730  0.69021147  0.10840571     0.01600
C167        C  0.99324926  0.65546326  0.09191848    -0.21300
C168        C  0.98523483  0.62645153  0.11811112    -0.21500
C169        C  0.96790036  0.64434522  0.14976745     0.01500
H170        H  0.00449363  0.65132626  0.06273795     0.15300
H171        H  0.98977896  0.59531062  0.11370704     0.15300
C172        C  0.95724483  0.71355120  0.17352419     0.82700
N173        N  0.92738431  0.70982160  0.19927409    -0.75600
C174        C  0.92207000  0.73651518  0.22857052     0.85200
N175        N  0.94728308  0.76667137  0.23215641    -0.75500
C176        C  0.97730522  0.77058734  0.20668930     0.85300
N177        N  0.98207506  0.74393005  0.17760022    -0.77200
O178        O  0.36290379  0.72132027  0.18959864    -0.76000
C179        C  0.45060096  0.63391407  0.16170084     0.85000
O180        O  0.47770429  0.77363453  0.25035221    -0.77100
O181        O  0.54366343  0.71685485  0.13710975    -0.78600
O182        O  0.42359435  0.76495795  0.06830117    -0.78400
O183        O  0.35669228  0.76441430  0.14095184    -0.77000
Zn184      Zn  0.42129684  0.71181628  0.19715905     1.55700
O185        O  0.47266003  0.72123726  0.06704257    -0.78400
Cd186      Cd  0.41454324  0.77642477  0.12742837     1.59700
Cd187      Cd  0.48660176  0.78004936  0.19050388     1.59600
O188        O  0.42370325  0.83619756  0.13592456    -0.78400
O189        O  0.45133047  0.74397315  0.16072851    -1.88900
Cd190      Cd  0.48425544  0.70924020  0.12597377     1.59900
O191        O  0.47491105  0.83886613  0.17606917    -0.78400
O192        O  0.47164016  0.65052813  0.13623119    -0.77000
C193        C  0.45678301  0.75043929  0.27009526     0.85500
C194        C  0.34186165  0.74205573  0.16654256     0.85200
O195        O  0.43126527  0.65345064  0.18697290    -0.76000
C196        C  0.44769304  0.74326829  0.04969273     0.86000
O197        O  0.43493634  0.72534319  0.25380181    -0.76100
C198        C  0.44874007  0.85559684  0.15507670     0.86100
C199        C  0.56236856  0.74038456  0.15887666     0.86400
O200        O  0.54516476  0.76612202  0.17993682    -0.78500
C201        C  0.68169177  0.73212570  0.16747458     0.19500
C202        C  0.70004956  0.69562955  0.17388477    -0.09600
C203        C  0.74025272  0.69314296  0.18087114    -0.10400
C204        C  0.76273750  0.72707422  0.18139060     0.21100
C205        C  0.74448703  0.76349589  0.17428049    -0.12500
C206        C  0.70427318  0.76598425  0.16727562    -0.10800
C207        C  0.80289714  0.72501752  0.19473585     0.02100
C208        C  0.83220898  0.72296327  0.21449775    -0.30800
C209        C  0.63967545  0.73498719  0.16279159     0.03400
C210        C  0.60448363  0.73747562  0.16025455    -0.32400
H211        H  0.68315709  0.66917092  0.17439946     0.14500
H212        H  0.75359269  0.66483272  0.18711133     0.14300
H213        H  0.76111238  0.79011197  0.17536497     0.14200
H214        H  0.69065074  0.79446242  0.16261982     0.13200
C215        C  0.22264557  0.73935767  0.17505408     0.19500
C216        C  0.20402749  0.71765872  0.20414185    -0.09600
C217        C  0.16345905  0.72018229  0.20845508    -0.10400
C218        C  0.14103443  0.74425101  0.18354931     0.21100
C219        C  0.15964035  0.76521122  0.15396487    -0.12500
C220        C  0.20010329  0.76274489  0.14970321    -0.10800
C221        C  0.10013190  0.75202152  0.19121716     0.02100
C222        C  0.06931859  0.76797372  0.19878242    -0.30800
C223        C  0.26478042  0.73904463  0.17206984     0.03400
C224        C  0.29992764  0.74013946  0.16953299    -0.32400
H225        H  0.22094585  0.69953000  0.22410076     0.14500
H226        H  0.14977500  0.70433649  0.23191312     0.14300
H227        H  0.14295909  0.78453216  0.13491383     0.14200
H228        H  0.21389218  0.77983607  0.12719493     0.13200
C229        C  0.91024580  0.00964221  0.21503794     0.19500
C230        C  0.92893763  0.99301324  0.24759471    -0.09600
C231        C  0.93514936  0.95245793  0.24983973    -0.10400
C232        C  0.92269116  0.92797867  0.21959651     0.21100
C233        C  0.90293031  0.94443204  0.18749905    -0.12500
C234        C  0.89659591  0.98513093  0.18529857    -0.10800
C235        C  0.93633579  0.88766260  0.21903936     0.02100
C236        C  0.95811633  0.85949828  0.21949295    -0.30800
C237        C  0.90713160  0.05184719  0.21146782     0.03400
C238        C  0.90643511  0.08727378  0.20955770    -0.32400
H239        H  0.93982544  0.01152271  0.27072047     0.14500
H240        H  0.95119752  0.94035034  0.27440897     0.14300
H241        H  0.89382711  0.92605440  0.16350174     0.14200
H242        H  0.88221736  0.99755528  0.15988852     0.13200
C243        C  0.91977785  0.46984112  0.21468945     0.19500
C244        C  0.88842743  0.49636369  0.21027044    -0.09600
C245        C  0.89507863  0.53666995  0.20609632    -0.10400
C246        C  0.93311559  0.55084724  0.20652792     0.21100
C247        C  0.96430951  0.52431960  0.21159327    -0.12500
C248        C  0.95768384  0.48414210  0.21571134    -0.10800
C249        C  0.94090470  0.59130264  0.19658250     0.02100
C250        C  0.95136233  0.62092821  0.18049432    -0.30800
C251        C  0.91360444  0.42791664  0.21652230     0.03400
C252        C  0.91085327  0.39253756  0.21685694    -0.32400
H253        H  0.85896197  0.48582936  0.20917274     0.14500
H254        H  0.87066123  0.55658627  0.20141987     0.14300
H255        H  0.99389625  0.53456624  0.21117899     0.14200
H256        H  0.98225301  0.46409997  0.21882773     0.13200
C257        C  0.91898245  0.24462959  0.52225142     0.19500
C258        C  0.95382261  0.24237246  0.50119785    -0.09600
C259        C  0.95333800  0.23538012  0.46088098    -0.10400
C260        C  0.91796796  0.23066826  0.44112841     0.21100
C261        C  0.88331243  0.23070447  0.46253317    -0.12500
C262        C  0.88379487  0.23775235  0.50286659    -0.10800
C263        C  0.91692154  0.22948263  0.39879573     0.02100
C264        C  0.91560640  0.23099514  0.36344186    -0.30800
C265        C  0.91887829  0.26183537  0.56089716     0.03400
C266        C  0.92034807  0.28580814  0.58685523    -0.32400
H267        H  0.98121700  0.24832944  0.51550793     0.14500
H268        H  0.98036770  0.23553945  0.44485811     0.14300
H269        H  0.85571407  0.22719081  0.44775475     0.14200
H270        H  0.85656681  0.24008399  0.51844845     0.13200
C271        C  0.90553291  0.25422399  0.98018237     0.19500
C272        C  0.89341381  0.28924070  0.96195417    -0.09600
C273        C  0.89682826  0.29375639  0.92134441    -0.10400
C274        C  0.91220552  0.26324322  0.89836297     0.21100
C275        C  0.92354408  0.22794721  0.91653937    -0.12500
C276        C  0.92016458  0.22344551  0.95711563    -0.10800
C277        C  0.92197448  0.26998324  0.85765200     0.02100
C278        C  0.93945999  0.27670062  0.82775104    -0.30800
C279        C  0.90444967  0.25043473  0.02248394     0.03400
C280        C  0.90461309  0.24757881  0.05784231    -0.32400
H281        H  0.88221918  0.31342062  0.97923386     0.14500
H282        H  0.88867770  0.32153019  0.90806619     0.14300
H283        H  0.93626146  0.20434029  0.89950943     0.14200
H284        H  0.92987160  0.19625651  0.97060154     0.13200
C285        C  0.10785848  0.29275452  0.69177698     0.19500
C286        C  0.12393450  0.32188251  0.66817612    -0.09600
C287        C  0.16381416  0.32085338  0.65939627    -0.10400
C288        C  0.18806042  0.29080997  0.67428855     0.21100
C289        C  0.17182035  0.26150269  0.69745530    -0.12500
C290        C  0.13206558  0.26249448  0.70615216    -0.10800
C291        C  0.22966394  0.29053186  0.66707546     0.02100
C292        C  0.26465662  0.28995036  0.66265113    -0.30800
C293        C  0.06797195  0.29575378  0.70530363     0.03400
C294        C  0.03899519  0.29698542  0.72530617    -0.32400
H295        H  0.10589322  0.34585492  0.65735325     0.14500
H296        H  0.17584633  0.34386777  0.64161305     0.14300
H297        H  0.19003677  0.23821225  0.70941621     0.14200
H298        H  0.12036745  0.24013498  0.72499200     0.13200
C299        C  0.72833585  0.29817867  0.68097426     0.19500
C300        C  0.71196345  0.29495901  0.64352092    -0.09600
C301        C  0.67141063  0.29686891  0.63832966    -0.10400
C302        C  0.64668629  0.30175908  0.67053385     0.21100
C303        C  0.66314189  0.30596715  0.70778515    -0.12500
C304        C  0.70360181  0.30411561  0.71295422    -0.10800
C305        C  0.60461410  0.30079578  0.66585503     0.02100
C306        C  0.56942580  0.29919508  0.66320963    -0.30800
C307        C  0.76928848  0.28906299  0.68769205     0.03400
C308        C  0.79927874  0.27205641  0.69671295    -0.32400
H309        H  0.73041682  0.28954744  0.61853231     0.14500
H310        H  0.65932355  0.29343618  0.60932369     0.14300
H311        H  0.64464615  0.30961229  0.73303688     0.14200
H312        H  0.71553365  0.30583066  0.74219468     0.13200
C313        C  0.44530373  0.76811364  0.47114471     0.19500
C314        C  0.42070665  0.74360036  0.44988119    -0.09600
C315        C  0.42516773  0.73915472  0.40952497    -0.10400
C316        C  0.45427082  0.75920854  0.38971035     0.21100
C317        C  0.47938420  0.78332018  0.41095906    -0.12500
C318        C  0.47485078  0.78785147  0.45149593    -0.10800
C319        C  0.45711356  0.75592019  0.34755976     0.02100
C320        C  0.45752402  0.75310326  0.31226591    -0.30800
C321        C  0.43662813  0.77586320  0.51187286     0.03400
C322        C  0.41938561  0.78274495  0.54193788    -0.32400
H323        H  0.39730071  0.72867364  0.46439008     0.14500
H324        H  0.40537803  0.72061038  0.39364154     0.14300
H325        H  0.50193227  0.79919463  0.39611182     0.14200
H326        H  0.49371655  0.80741985  0.46726763     0.13200
C327        C  0.42084027  0.60399956  0.64738919     0.19500
C328        C  0.41768285  0.58211400  0.61293078    -0.09600
C329        C  0.41235395  0.54151124  0.61459581    -0.10400
C330        C  0.41029541  0.52236060  0.65073267     0.21100
C331        C  0.41194421  0.54444694  0.68516229    -0.12500
C332        C  0.41727523  0.58504376  0.68349496    -0.10800
C333        C  0.40907292  0.47998627  0.65254393     0.02100
C334        C  0.40967866  0.44451898  0.65405726    -0.30800
C335        C  0.43500984  0.64364653  0.64585320     0.03400
C336        C  0.45641657  0.67135506  0.64486553    -0.32400
H337        H  0.42121317  0.59610509  0.58482952     0.14500
H338        H  0.41129400  0.52487149  0.58771878     0.14300
H339        H  0.41056639  0.53010588  0.71330282     0.14200
H340        H  0.42049112  0.60132592  0.71040491     0.13200
C341        C  0.44652479  0.75060138  0.92998265     0.19500
C342        C  0.48185997  0.75392162  0.91017155    -0.09600
C343        C  0.48231573  0.76124926  0.86992354    -0.10400
C344        C  0.44744281  0.76523594  0.84888013     0.21100
C345        C  0.41204521  0.76100008  0.86850081    -0.12500
C346        C  0.41158686  0.75361071  0.90882801    -0.10800
C347        C  0.44819702  0.77976987  0.80910197     0.02100
C348        C  0.45046304  0.80066893  0.78063755    -0.30800
C349        C  0.44628187  0.74617107  0.97212126     0.03400
C350        C  0.44683242  0.74409195  0.00746166    -0.32400
H351        H  0.50910771  0.75193693  0.92603794     0.14500
H352        H  0.50987314  0.76527727  0.85548576     0.14300
H353        H  0.38478796  0.76482089  0.85293134     0.14200
H354        H  0.38401296  0.75135665  0.92366004     0.13200
C355        C  0.42785161  0.06087553  0.64876193     0.19500
C356        C  0.39565039  0.03882568  0.65963382    -0.09600
C357        C  0.39868115  0.99788516  0.66220393    -0.10400
C358        C  0.43388330  0.97843331  0.65381260     0.21100
C359        C  0.46578632  0.00038369  0.64176497    -0.12500
C360        C  0.46273686  0.04138227  0.63913627    -0.10800
C361        C  0.43882439  0.93741731  0.66407746     0.02100
C362        C  0.44331977  0.90731369  0.68240723    -0.30800
C363        C  0.42560729  0.10337867  0.64945726     0.03400
C364        C  0.42399498  0.13887023  0.65110038    -0.32400
H365        H  0.36854325  0.05334646  0.66730365     0.14500
H366        H  0.37398383  0.98152485  0.67234405     0.14300
H367        H  0.49342516  0.98599575  0.63594649     0.14200
H368        H  0.48795240  0.05794774  0.63079203     0.13200
C369        C  0.25594451  0.80646563  0.68366299     0.19500
C370        C  0.23051433  0.83698188  0.67218119    -0.09600
C371        C  0.19059215  0.83484817  0.67973221    -0.10400
C372        C  0.17551882  0.80207881  0.69877144     0.21100
C373        C  0.20108068  0.77217884  0.71146710    -0.12500
C374        C  0.24105347  0.77429032  0.70385618    -0.10800
C375        C  0.13380620  0.79814526  0.70312432     0.02100
C376        C  0.09882523  0.79481146  0.70508351    -0.30800
C377        C  0.29558896  0.80569306  0.66932557     0.03400
C378        C  0.32387203  0.80469145  0.64836111    -0.32400
H379        H  0.24132628  0.86174587  0.65594770     0.14500
H380        H  0.17134453  0.85816670  0.66960024     0.14300
H381        H  0.18996029  0.74660277  0.72613049     0.14200
H382        H  0.26006210  0.75014508  0.71236669     0.13200
C383        C  0.96352254  0.75753215  0.01508661     0.19500
C384        C  0.99040255  0.78153494  0.99634220    -0.09600
C385        C  0.98624751  0.79024372  0.95641104    -0.10400
C386        C  0.95528023  0.77487107  0.93479022     0.21100
C387        C  0.92816229  0.75141125  0.95374450    -0.12500
C388        C  0.93227299  0.74277921  0.99355401    -0.10800
C389        C  0.95208383  0.78150250  0.89298196     0.02100
C390        C  0.94943520  0.78498779  0.85779954    -0.30800
C391        C  0.96992584  0.74399268  0.05481842     0.03400
C392        C  0.97490173  0.72457421  0.08411721    -0.32400
H393        H  0.01509360  0.79266528  0.01229583     0.14500
H394        H  0.00761666  0.80823334  0.94224708     0.14300
H395        H  0.90422399  0.73906174  0.93754173     0.14200
H396        H  0.91161872  0.72365249  0.00731617     0.13200
C397        C  0.92804332  0.09916568  0.70687155     0.19500
C398        C  0.90401332  0.07752971  0.68207289    -0.09600
C399        C  0.90905247  0.03691303  0.67872965    -0.10400
C400        C  0.93818385  0.01738612  0.70018007     0.21100
C401        C  0.96301581  0.03908814  0.72416515    -0.12500
C402        C  0.95789541  0.07984726  0.72759950    -0.10800
C403        C  0.94106520  0.97503228  0.69910060     0.02100
C404        C  0.94219024  0.93955708  0.69913372    -0.30800
C405        C  0.91826195  0.13991384  0.71406140     0.03400
C406        C  0.89985228  0.16992484  0.71932224    -0.32400
H407        H  0.88044970  0.09191702  0.66630549     0.14500
H408        H  0.88953379  0.02061169  0.66021306     0.14300
H409        H  0.98560044  0.02438591  0.74101867     0.14200
H410        H  0.97635830  0.09601909  0.74728244     0.13200
C411        C  0.95215921  0.75969473  0.39241291     0.19500
C412        C  0.94187822  0.79562374  0.40978336    -0.09600
C413        C  0.94397224  0.80028537  0.45046902    -0.10400
C414        C  0.95621164  0.76900431  0.47441939     0.21100
C415        C  0.96737961  0.73337588  0.45699807    -0.12500
C416        C  0.96528286  0.72871475  0.41631267    -0.10800
C417        C  0.95574785  0.77294676  0.51672937     0.02100
C418        C  0.95436722  0.77601346  0.55204198    -0.30800
C419        C  0.94352726  0.75279544  0.35139457     0.03400
C420        C  0.92746082  0.74466313  0.32091618    -0.32400
H421        H  0.93091399  0.81967240  0.39199086     0.14500
H422        H  0.93508146  0.82796226  0.46330113     0.14300
H423        H  0.97676910  0.70880435  0.47495395     0.14200
H424        H  0.97259578  0.70052228  0.40364397     0.13200
C425        C  0.94009356  0.47402727  0.69882645     0.19500
C426        C  0.91135655  0.49923790  0.68328873    -0.09600
C427        C  0.91417513  0.53991189  0.68750494    -0.10400
C428        C  0.94583266  0.55605943  0.70722759     0.21100
C429        C  0.97431715  0.53089572  0.72344741    -0.12500
C430        C  0.97151880  0.49006176  0.71916081    -0.10800
C431        C  0.94929764  0.59835129  0.70954445     0.02100
C432        C  0.95047434  0.63386815  0.70981518    -0.30800
C433        C  0.93909509  0.43255434  0.68956013     0.03400
C434        C  0.93730014  0.40126837  0.67298891    -0.32400
H435        H  0.88723838  0.48748017  0.66693733     0.14500
H436        H  0.89197797  0.55883479  0.67467821     0.14300
H437        H  0.99903294  0.54283267  0.73869788     0.14200
H438        H  0.99432207  0.47111958  0.73081986     0.13200
C439        C  0.63561867  0.78538435  0.68137198     0.19500
C440        C  0.65732968  0.81226227  0.65984709    -0.09600
C441        C  0.69785218  0.81405868  0.66489684    -0.10400
C442        C  0.71717000  0.78885155  0.69131358     0.21100
C443        C  0.69534164  0.76239229  0.71312404    -0.12500
C444        C  0.65494595  0.76065567  0.70814603    -0.10800
C445        C  0.75930945  0.78908804  0.69522478     0.02100
C446        C  0.79453730  0.78841355  0.69800745    -0.30800
C447        C  0.59465498  0.77926952  0.67317243     0.03400
C448        C  0.56391608  0.76403565  0.66561537    -0.32400
H449        H  0.64313948  0.83110674  0.63852577     0.14500
H450        H  0.71420172  0.83459211  0.64763377     0.14300
H451        H  0.70963204  0.74255527  0.73348374     0.14200
H452        H  0.63885501  0.73918105  0.72450741     0.13200
C453        C  0.42240475  0.43441943  0.14512353     0.19500
C454        C  0.42971579  0.45806508  0.11257206    -0.09600
C455        C  0.43784353  0.49788731  0.11731985    -0.10400
C456        C  0.43864273  0.51462455  0.15466230     0.21100
C457        C  0.43212590  0.49082680  0.18732663    -0.12500
C458        C  0.42396758  0.45094288  0.18256767    -0.10800
C459        C  0.44438398  0.55641578  0.15908569     0.02100
C460        C  0.44785664  0.59165381  0.16120346    -0.30800
C461        C  0.40838158  0.39499133  0.13959502     0.03400
C462        C  0.38964888  0.36592989  0.13335195    -0.32400
H463        H  0.42793953  0.44600784  0.08342127     0.14500
H464        H  0.44259309  0.51584650  0.09175282     0.14300
H465        H  0.43242931  0.50327725  0.21636569     0.14200
H466        H  0.41771454  0.43330054  0.20800214     0.14400
C467        C  0.13774780  0.24061832  0.18703582     0.19500
C468        C  0.15172384  0.23475193  0.14904156    -0.09600
C469        C  0.19156757  0.23747393  0.14104818    -0.10400
C470        C  0.21812202  0.24593297  0.17096578     0.21100
C471        C  0.20419958  0.25140357  0.20905565    -0.12500
C472        C  0.16431155  0.24866802  0.21706245    -0.10800
C473        C  0.25845335  0.25383593  0.16155722     0.02100
C474        C  0.28855513  0.26817989  0.15056605    -0.30800
C475        C  0.09622097  0.23934886  0.19480993     0.03400
C476        C  0.06131216  0.23868057  0.19995000    -0.32400
H477        H  0.13171664  0.22872087  0.12539900     0.14500
H478        H  0.20153489  0.23394845  0.11131712     0.14300
H479        H  0.22405573  0.25874505  0.23242852     0.14200
H480        H  0.15413643  0.25349668  0.24654129     0.13200
C481        C  0.41067500  0.27055180  0.34519033     0.19500
C482        C  0.38673618  0.29905525  0.36281568    -0.09600
C483        C  0.38893596  0.30555212  0.40325996    -0.10400
C484        C  0.41493753  0.28344203  0.42647699     0.21100
C485        C  0.43940051  0.25558573  0.40866765    -0.12500
C486        C  0.43726621  0.24916891  0.36834866    -0.10800
C487        C  0.41553564  0.28794269  0.46860630     0.02100
C488        C  0.41606918  0.28999307  0.50394761    -0.30800
C489        C  0.40488758  0.25898666  0.30486727     0.03400
C490        C  0.39985336  0.23936696  0.27588665    -0.32400
H491        H  0.36556249  0.31538092  0.34555219     0.14500
H492        H  0.36971975  0.32709232  0.41652925     0.14300
H493        H  0.45952495  0.23810588  0.42610112     0.14200
H494        H  0.45548691  0.22655146  0.35541077     0.13200
C495        C  0.43687067  0.97568977  0.15304700     0.19500
C496        C  0.40239226  0.99119300  0.16879104    -0.09600
C497        C  0.39638672  0.03182566  0.17123540    -0.10400
C498        C  0.42468552  0.05767929  0.15789611     0.21100
C499        C  0.45900330  0.04226181  0.14155506    -0.12500
C500        C  0.46500439  0.00145565  0.13903528    -0.10800
C501        C  0.41985510  0.09933848  0.16565002     0.02100
C502        C  0.41325364  0.13043325  0.18163270    -0.30800
C503        C  0.44337095  0.93348769  0.15243708     0.03400
C504        C  0.44684917  0.89802759  0.15329806    -0.32400
H505        H  0.38040285  0.97185018  0.17987287     0.14500
H506        H  0.37000209  0.04311371  0.18457775     0.14300
H507        H  0.48147360  0.06168610  0.13169539     0.14200
H508        H  0.49188032  0.99003501  0.12685642     0.13200
C509        C  0.59928573  0.24024275  0.18323670     0.19500
C510        C  0.62076614  0.20573980  0.19080028    -0.09600
C511        C  0.66063241  0.20726085  0.19928209    -0.10400
C512        C  0.67962182  0.24330116  0.20014908     0.21100
C513        C  0.65797753  0.27790763  0.19350269    -0.12500
C514        C  0.61808377  0.27638296  0.18500740    -0.10800
C515        C  0.72146878  0.24448914  0.20578954     0.02100
C516        C  0.75662041  0.24466373  0.20887562    -0.30800
C517        C  0.55996293  0.23806471  0.16794854     0.03400
C518        C  0.53177437  0.23556531  0.14681930    -0.32400
H519        H  0.60700197  0.17751226  0.18877403     0.14500
H520        H  0.67685832  0.18021380  0.20410006     0.14300
H521        H  0.67213807  0.30599993  0.19381724     0.14200
H522        H  0.60222117  0.30328167  0.17846496     0.13200
C523        C  0.40711463  0.28001324  0.88647663     0.19500
C524        C  0.39795561  0.24372397  0.90302832    -0.09600
C525        C  0.39974746  0.23832704  0.94360115    -0.10400
C526        C  0.41052548  0.26919925  0.96815460     0.21100
C527        C  0.41835097  0.30588371  0.95168177    -0.12500
C528        C  0.41657722  0.31127908  0.91109695    -0.10800
C529        C  0.42002465  0.26155771  0.00879109     0.02100
C530        C  0.43718251  0.25350681  0.03877497    -0.30800
C531        C  0.40882072  0.28442460  0.84436086     0.03400
C532        C  0.41112216  0.28697629  0.80912695    -0.32400
H533        H  0.39067756  0.21922539  0.88449857     0.14500
H534        H  0.39433133  0.20959067  0.95566378     0.14300
H535        H  0.42744462  0.32985823  0.97005490     0.14200
H536        H  0.42383077  0.33949076  0.89886192     0.13200
loop_ 
_geom_bond_atom_site_label_1 
_geom_bond_atom_site_label_2 
_geom_bond_distance 
_geom_bond_site_symmetry_2 
_ccdc_geom_bond_type 
N1            C5   1.365       .  A
N1            C2   1.364       .  A
N1           C24   1.447       .  S
C2            C3   1.379       .  A
C2          C518   1.447       .  S
C3            C4   1.368       .  A
C3            H6   1.083       .  S
C4            C5   1.378       .  A
C4            H7   1.083       .  S
C5          C530   1.447       .  S
N8           C12   1.365       .  A
N8            C9   1.363       .  A
N8           C26   1.445       .  S
C9           C10   1.379       .  A
C9          C490   1.446       .  S
C10          C11   1.367       .  A
C10          H13   1.083       .  S
C11          C12   1.378       .  A
C11          H14   1.083       .  S
C12         C502   1.448       .  S
N15          C19   1.366       .  A
N15          C16   1.362       .  A
N15          C22   1.447       .  S
C16          C17   1.377       .  A
C16         C462   1.447       .  S
C17          C18   1.369       .  A
C17          H20   1.083       .  S
C18          C19   1.380       .  A
C18          H21   1.083       .  S
C19         C474   1.450       .  S
C22          N23   1.363       .  A
C22          N27   1.363       .  A
N23          C24   1.360       .  A
C24          N25   1.364       .  A
N25          C26   1.365       .  A
C26          N27   1.368       .  A
O28          C44   1.277       .  A
O28         Zn34   2.052       .  S
C29         C376   1.449       .  S
C29          O45   1.277       .  A
C29          O42   1.274       .  A
O30          C43   1.276       .  A
O30         Cd37   2.088       .  S
O31          C49   1.276       .  A
O31         Cd40   2.092       .  S
O32          C46   1.277       .  A
O32         Cd36   2.092       .  S
O33          C44   1.277       .  A
O33         Cd36   2.095       .  S
Zn34         O45   2.055   1_655  S
Zn34         O47   2.052       .  S
Zn34         O39   1.971       .  S
O35          C46   1.275       .  A
O35         Cd40   2.081       .  S
Cd36         O38   2.094       .  S
Cd36         O39   2.019       .  S
Cd37         O41   2.106       .  S
Cd37         O50   2.099       .  S
Cd37         O39   2.020       .  S
O38          C48   1.277       .  A
O39         Cd40   2.018       .  S
Cd40         O42   2.082   1_655  S
O41          C48   1.279       .  A
C43         C432   1.449       .  S
C43          O47   1.278       .  A
C44         C418   1.453       .  S
C46         C404   1.444       .  S
C48         C446   1.453       .  S
C49         C390   1.450       .  S
C49          O50   1.277       .  A
N51          C55   1.363       .  A
N51          C52   1.363       .  A
N51          C72   1.443       .  S
C52          C53   1.379       .  A
C52         C348   1.446       .  S
C53          C54   1.368       .  A
C53          H56   1.083       .  S
C54          C55   1.378       .  A
C54          H57   1.083       .  S
C55         C362   1.445       .  S
N58          C62   1.366       .  A
N58          C59   1.362       .  A
N58          C74   1.446       .  S
C59          C60   1.378       .  A
C59         C336   1.444       .  S
C60          C61   1.367       .  A
C60          H63   1.083       .  S
C61          C62   1.379       .  A
C61          H64   1.083       .  S
C62         C448   1.448       .  S
N65          C69   1.365       .  A
N65          C66   1.365       .  A
N65          C76   1.447       .  S
C66          C67   1.379       .  A
C66         C378   1.447       .  S
C67          C68   1.367       .  A
C67          H70   1.083       .  S
C68          C69   1.378       .  A
C68          H71   1.083       .  S
C69         C322   1.447       .  S
C72          N73   1.364       .  A
C72          N77   1.363       .  A
N73          C74   1.362       .  A
C74          N75   1.365       .  A
N75          C76   1.363       .  A
C76          N77   1.363       .  A
O78          C94   1.276       .  A
O78         Zn84   2.041       .  S
C79         C292   1.451       .  S
C79          O95   1.276       .  A
C79          O92   1.276       .  A
O80          C93   1.276       .  A
O80         Cd87   2.087       .  S
O81          C99   1.277       .  A
O81         Cd90   2.092       .  S
O82          C96   1.277       .  A
O82         Cd86   2.092       .  S
O83          C94   1.277       .  A
O83         Cd86   2.096       .  S
Zn84         O95   2.048       .  S
Zn84         O97   2.050       .  S
Zn84         O89   1.968       .  S
O85          C96   1.275       .  A
O85         Cd90   2.084       .  S
Cd86         O88   2.099       .  S
Cd86         O89   2.020       .  S
Cd87         O91   2.103       .  S
Cd87        O100   2.093       .  S
Cd87         O89   2.019       .  S
O88          C98   1.277       .  A
O89         Cd90   2.019       .  S
Cd90         O92   2.092       .  S
O91          C98   1.278       .  A
C93         C364   1.448       .  S
C93          O97   1.277       .  A
C94         C532   1.449       .  S
C96         C334   1.445       .  S
C98         C306   1.454       .  S
C99         C488   1.448       .  S
C99         O100   1.277       .  A
N101        C105   1.368       .  A
N101        C102   1.366   1_655  A
N101        C124   1.449       .  S
C102        C103   1.378       .  A
C102        C294   1.448       .  S
C103        C104   1.366       .  A
C103        H106   1.083       .  S
C104        C105   1.378   1_455  A
C104        H107   1.083       .  S
C105        C278   1.449       .  S
N108        C112   1.364       .  A
N108        C109   1.362       .  A
N108        C122   1.443       .  S
C109        C110   1.379       .  A
C109        C266   1.445       .  S
C110        C111   1.369       .  A
C110        H113   1.083       .  S
C111        C112   1.379       .  A
C111        H114   1.083       .  S
C112        C434   1.447       .  S
N115        C119   1.366       .  A
N115        C116   1.361       .  A
N115        C126   1.445       .  S
C116        C117   1.378       .  A
C116        C406   1.444       .  S
C117        C118   1.367       .  A
C117        H120   1.083       .  S
C118        C119   1.379       .  A
C118        H121   1.083       .  S
C119        C308   1.448       .  S
C122        N123   1.362       .  A
C122        N127   1.365       .  A
N123        C124   1.362       .  A
C124        N125   1.362       .  A
N125        C126   1.367       .  A
C126        N127   1.363       .  A
O128        C144   1.277       .  A
O128       Zn134   2.051       .  S
C129        C516   1.450       .  S
C129        O145   1.277       .  A
C129        O142   1.276       .  A
O130        C143   1.276       .  A
O130       Cd137   2.089       .  S
O131        C149   1.276       .  A
O131       Cd140   2.089       .  S
O132        C146   1.277       .  A
O132       Cd136   2.093       .  S
O133        C144   1.276       .  A
O133       Cd136   2.094       .  S
Zn134       O145   2.050       .  S
Zn134       O147   2.045       .  S
Zn134       O139   1.969       .  S
O135        C146   1.275       .  A
O135       Cd140   2.080       .  S
Cd136       O138   2.095       .  S
Cd136       O139   2.019       .  S
Cd137       O141   2.101   1_655  S
Cd137       O150   2.099       .  S
Cd137       O139   2.020       .  S
O138        C148   1.276   1_655  A
O139       Cd140   2.019       .  S
Cd140       O142   2.092       .  S
O141        C148   1.277       .  A
C143        C252   1.447       .  S
C143        O147   1.277       .  A
C144        C280   1.452       .  S
C146        C238   1.444       .  S
C148        C476   1.453       .  S
C149        C264   1.449       .  S
C149        O150   1.278       .  A
N151        C155   1.366       .  A
N151        C152   1.361   1_455  A
N151        C176   1.445   1_455  S
C152        C153   1.378   1_655  A
C152        C236   1.443       .  S
C153        C154   1.367       .  A
C153        H156   1.083       .  S
C154        C155   1.379       .  A
C154        H157   1.083       .  S
C155        C222   1.448       .  S
N158        C162   1.368       .  A
N158        C159   1.366       .  A
N158        C174   1.449       .  S
C159        C160   1.379       .  A
C159        C208   1.449       .  S
C160        C161   1.366       .  A
C160        H163   1.083       .  S
C161        C162   1.378       .  A
C161        H164   1.083       .  S
C162        C420   1.450       .  S
N165        C169   1.364       .  A
N165        C166   1.364       .  A
N165        C172   1.446       .  S
C166        C167   1.379       .  A
C166        C392   1.448       .  S
C167        C168   1.369       .  A
C167        H170   1.083   1_655  S
C168        C169   1.379       .  A
C168        H171   1.083       .  S
C169        C250   1.446       .  S
C172        N173   1.366       .  A
C172        N177   1.362       .  A
N173        C174   1.368       .  A
C174        N175   1.364       .  A
N175        C176   1.364       .  A
C176        N177   1.359       .  A
O178        C194   1.276       .  A
O178       Zn184   2.047       .  S
C179        C460   1.448       .  S
C179        O195   1.277       .  A
C179        O192   1.276       .  A
O180        C193   1.276       .  A
O180       Cd187   2.088       .  S
O181        C199   1.278       .  A
O181       Cd190   2.100       .  S
O182        C196   1.276       .  A
O182       Cd186   2.089       .  S
O183        C194   1.276       .  A
O183       Cd186   2.095       .  S
Zn184       O195   2.047       .  S
Zn184       O197   2.051       .  S
Zn184       O189   1.970       .  S
O185        C196   1.277       .  A
O185       Cd190   2.096       .  S
Cd186       O188   2.091       .  S
Cd186       O189   2.018       .  S
Cd187       O191   2.099       .  S
Cd187       O200   2.097       .  S
Cd187       O189   2.019       .  S
O188        C198   1.276       .  A
O189       Cd190   2.020       .  S
Cd190       O192   2.088       .  S
O191        C198   1.278       .  A
C193        C320   1.449       .  S
C193        O197   1.277       .  A
C194        C224   1.451       .  S
C196        C350   1.448       .  S
C198        C504   1.450       .  S
C199        C210   1.453       .  S
C199        O200   1.277       .  A
C201        C202   1.404       .  A
C201        C206   1.404       .  A
C201        C209   1.457       .  S
C202        C203   1.405       .  A
C202        H211   1.083       .  S
C203        C204   1.405       .  A
C203        H212   1.084       .  S
C204        C205   1.404       .  A
C204        C207   1.455       .  S
C205        C206   1.406       .  A
C205        H213   1.083       .  S
C206        H214   1.084       .  S
C207        C208   1.214       .  T
C209        C210   1.216       .  T
C215        C216   1.405       .  A
C215        C220   1.403       .  A
C215        C223   1.455       .  S
C216        C217   1.407       .  A
C216        H225   1.084       .  S
C217        C218   1.404       .  A
C217        H226   1.083       .  S
C218        C219   1.404       .  A
C218        C221   1.454       .  S
C219        C220   1.403       .  A
C219        H227   1.084       .  S
C220        H228   1.083       .  S
C221        C222   1.214       .  T
C223        C224   1.215       .  T
C229        C230   1.401   1_545  A
C229        C234   1.404   1_545  A
C229        C237   1.448       .  S
C230        C231   1.399       .  A
C230        H239   1.084   1_565  S
C231        C232   1.403       .  A
C231        H240   1.083       .  S
C232        C233   1.403       .  A
C232        C235   1.447       .  S
C233        C234   1.405       .  A
C233        H241   1.084       .  S
C234        H242   1.083       .  S
C235        C236   1.209       .  T
C237        C238   1.211       .  T
C243        C244   1.405       .  A
C243        C248   1.402       .  A
C243        C251   1.452       .  S
C244        C245   1.406       .  A
C244        H253   1.083       .  S
C245        C246   1.404       .  A
C245        H254   1.084       .  S
C246        C247   1.403       .  A
C246        C249   1.452       .  S
C247        C248   1.402       .  A
C247        H255   1.083       .  S
C248        H256   1.084       .  S
C249        C250   1.212       .  T
C251        C252   1.213       .  T
C257        C258   1.404       .  A
C257        C262   1.403       .  A
C257        C265   1.450       .  S
C258        C259   1.403       .  A
C258        H267   1.084       .  S
C259        C260   1.403       .  A
C259        H268   1.083       .  S
C260        C261   1.404       .  A
C260        C263   1.452       .  S
C261        C262   1.404       .  A
C261        H269   1.084       .  S
C262        H270   1.083       .  S
C263        C264   1.214       .  T
C265        C266   1.211       .  T
C271        C272   1.405       .  A
C271        C276   1.404       .  A
C271        C279   1.457   1_556  S
C272        C273   1.406       .  A
C272        H281   1.083       .  S
C273        C274   1.404       .  A
C273        H282   1.084       .  S
C274        C275   1.405       .  A
C274        C277   1.456       .  S
C275        C276   1.405       .  A
C275        H283   1.083       .  S
C276        H284   1.084       .  S
C277        C278   1.215       .  T
C279        C280   1.216       .  T
C285        C286   1.404       .  A
C285        C290   1.404       .  A
C285        C293   1.454       .  S
C286        C287   1.407       .  A
C286        H295   1.083       .  S
C287        C288   1.406       .  A
C287        H296   1.083       .  S
C288        C289   1.402       .  A
C288        C291   1.455       .  S
C289        C290   1.402       .  A
C289        H297   1.084       .  S
C290        H298   1.084       .  S
C291        C292   1.215       .  T
C293        C294   1.213       .  T
C299        C300   1.405       .  A
C299        C304   1.404       .  A
C299        C307   1.456       .  S
C300        C301   1.408       .  A
C300        H309   1.083       .  S
C301        C302   1.405       .  A
C301        H310   1.084       .  S
C302        C303   1.404       .  A
C302        C305   1.458       .  S
C303        C304   1.404       .  A
C303        H311   1.083       .  S
C304        H312   1.084       .  S
C305        C306   1.217       .  T
C307        C308   1.215       .  T
C313        C314   1.404       .  A
C313        C318   1.404       .  A
C313        C321   1.453       .  S
C314        C315   1.401       .  A
C314        H323   1.083       .  S
C315        C316   1.401       .  A
C315        H324   1.084       .  S
C316        C317   1.406       .  A
C316        C319   1.453       .  S
C317        C318   1.407       .  A
C317        H325   1.083       .  S
C318        H326   1.083       .  S
C319        C320   1.214       .  T
C321        C322   1.213       .  T
C327        C328   1.403       .  A
C327        C332   1.403       .  A
C327        C335   1.448       .  S
C328        C329   1.403       .  A
C328        H337   1.083       .  S
C329        C330   1.403       .  A
C329        H338   1.084       .  S
C330        C331   1.403       .  A
C330        C333   1.449       .  S
C331        C332   1.402       .  A
C331        H339   1.083       .  S
C332        H340   1.084       .  S
C333        C334   1.212       .  T
C335        C336   1.210       .  T
C341        C342   1.402       .  A
C341        C346   1.405       .  A
C341        C349   1.452       .  S
C342        C343   1.402       .  A
C342        H351   1.084       .  S
C343        C344   1.403       .  A
C343        H352   1.083       .  S
C344        C345   1.404       .  A
C344        C347   1.451       .  S
C345        C346   1.405       .  A
C345        H353   1.084       .  S
C346        H354   1.083       .  S
C347        C348   1.212       .  T
C349        C350   1.214   1_556  T
C355        C356   1.403       .  A
C355        C360   1.404       .  A
C355        C363   1.452       .  S
C356        C357   1.403   1_545  A
C356        H365   1.083       .  S
C357        C358   1.403       .  A
C357        H366   1.084       .  S
C358        C359   1.404   1_565  A
C358        C361   1.451       .  S
C359        C360   1.405       .  A
C359        H367   1.083   1_545  S
C360        H368   1.084       .  S
C361        C362   1.211       .  T
C363        C364   1.213       .  T
C369        C370   1.404       .  A
C369        C374   1.404       .  A
C369        C377   1.453       .  S
C370        C371   1.403       .  A
C370        H379   1.084       .  S
C371        C372   1.403       .  A
C371        H380   1.083       .  S
C372        C373   1.404       .  A
C372        C375   1.453       .  S
C373        C374   1.405       .  A
C373        H381   1.084       .  S
C374        H382   1.083       .  S
C375        C376   1.214       .  T
C377        C378   1.213       .  T
C383        C384   1.404   1_554  A
C383        C388   1.403   1_554  A
C383        C391   1.453       .  S
C384        C385   1.407       .  A
C384        H393   1.084   1_656  S
C385        C386   1.406       .  A
C385        H394   1.083   1_655  S
C386        C387   1.402       .  A
C386        C389   1.454       .  S
C387        C388   1.402       .  A
C387        H395   1.084       .  S
C388        H396   1.083   1_556  S
C389        C390   1.215       .  T
C391        C392   1.213       .  T
C397        C398   1.403       .  A
C397        C402   1.402       .  A
C397        C405   1.447       .  S
C398        C399   1.399       .  A
C398        H407   1.084       .  S
C399        C400   1.401       .  A
C399        H408   1.084       .  S
C400        C401   1.405       .  A
C400        C403   1.448   1_545  S
C401        C402   1.405       .  A
C401        H409   1.083       .  S
C402        H410   1.083       .  S
C403        C404   1.211       .  T
C405        C406   1.210       .  T
C411        C412   1.405       .  A
C411        C416   1.405       .  A
C411        C419   1.456       .  S
C412        C413   1.406       .  A
C412        H421   1.084       .  S
C413        C414   1.404       .  A
C413        H422   1.083       .  S
C414        C415   1.404       .  A
C414        C417   1.457       .  S
C415        C416   1.406       .  A
C415        H423   1.084       .  S
C416        H424   1.083       .  S
C417        C418   1.216       .  T
C419        C420   1.215       .  T
C425        C426   1.403       .  A
C425        C430   1.404       .  A
C425        C433   1.452       .  S
C426        C427   1.401       .  A
C426        H435   1.083       .  S
C427        C428   1.402       .  A
C427        H436   1.084       .  S
C428        C429   1.405       .  A
C428        C431   1.453       .  S
C429        C430   1.407       .  A
C429        H437   1.083       .  S
C430        H438   1.084       .  S
C431        C432   1.214       .  T
C433        C434   1.213       .  T
C439        C440   1.405       .  A
C439        C444   1.404       .  A
C439        C447   1.456       .  S
C440        C441   1.408       .  A
C440        H449   1.083       .  S
C441        C442   1.406       .  A
C441        H450   1.084       .  S
C442        C443   1.403       .  A
C442        C445   1.457       .  S
C443        C444   1.403       .  A
C443        H451   1.083       .  S
C444        H452   1.084       .  S
C445        C446   1.216       .  T
C447        C448   1.215       .  T
C453        C454   1.403       .  A
C453        C458   1.404       .  A
C453        C461   1.450       .  S
C454        C455   1.402       .  A
C454        H463   1.083       .  S
C455        C456   1.403       .  A
C455        H464   1.084       .  S
C456        C457   1.404       .  A
C456        C459   1.452       .  S
C457        C458   1.405       .  A
C457        H465   1.083       .  S
C458        H466   1.084       .  S
C459        C460   1.213       .  T
C461        C462   1.212       .  T
C467        C468   1.404       .  A
C467        C472   1.405       .  A
C467        C475   1.457       .  S
C468        C469   1.405       .  A
C468        H477   1.084       .  S
C469        C470   1.405       .  A
C469        H478   1.083       .  S
C470        C471   1.404       .  A
C470        C473   1.457       .  S
C471        C472   1.407       .  A
C471        H479   1.084       .  S
C472        H480   1.083       .  S
C473        C474   1.215       .  T
C475        C476   1.216       .  T
C481        C482   1.403       .  A
C481        C486   1.404       .  A
C481        C489   1.452       .  S
C482        C483   1.406       .  A
C482        H491   1.084       .  S
C483        C484   1.405       .  A
C483        H492   1.083       .  S
C484        C485   1.402       .  A
C484        C487   1.453       .  S
C485        C486   1.402       .  A
C485        H493   1.084       .  S
C486        H494   1.083       .  S
C487        C488   1.214       .  T
C489        C490   1.212       .  T
C495        C496   1.402       .  A
C495        C500   1.406   1_565  A
C495        C503   1.454       .  S
C496        C497   1.402   1_565  A
C496        H505   1.083       .  S
C497        C498   1.404       .  A
C497        H506   1.084       .  S
C498        C499   1.404       .  A
C498        C501   1.454       .  S
C499        C500   1.408       .  A
C499        H507   1.083       .  S
C500        H508   1.084   1_545  S
C501        C502   1.214       .  T
C503        C504   1.215       .  T
C509        C510   1.404       .  A
C509        C514   1.404       .  A
C509        C517   1.453       .  S
C510        C511   1.404       .  A
C510        H519   1.083       .  S
C511        C512   1.404       .  A
C511        H520   1.083       .  S
C512        C513   1.404       .  A
C512        C515   1.455       .  S
C513        C514   1.405       .  A
C513        H521   1.083       .  S
C514        H522   1.083       .  S
C515        C516   1.215       .  T
C517        C518   1.213       .  T
C523        C524   1.404       .  A
C523        C528   1.403       .  A
C523        C531   1.453       .  S
C524        C525   1.404       .  A
C524        H533   1.083       .  S
C525        C526   1.404       .  A
C525        H534   1.084       .  S
C526        C527   1.404       .  A
C526        C529   1.452   1_556  S
C527        C528   1.404       .  A
C527        H535   1.083       .  S
C528        H536   1.084       .  S
C529        C530   1.212       .  T
C531        C532   1.214       .  T
