geometry optimzed in LAMMPS
_audit_creation_date              2020-11-30 
_audit_creation_method            'lammps2cif' 
_symmetry_space_group_name_H-M    'P1' 
_symmetry_Int_Tables_number       1 
_symmetry_cell_setting            triclinic 
loop_ 
_symmetry_equiv_pos_as_xyz 
  x,y,z 
_cell_length_a                    47.600805 
_cell_length_b                    47.65865948113285 
_cell_length_c                    30.689377714436162 
_cell_angle_alpha                 90.41674966529845 
_cell_angle_beta                  89.7831923374416 
_cell_angle_gamma                 90.02853659052504 
loop_ 
_atom_site_label 
_atom_site_type_symbol 
_atom_site_fract_x 
_atom_site_fract_y 
_atom_site_fract_z 
_atom_site_charge 
O1          O  0.28570830  0.02236730  0.99345454    -0.73100
O2          O  0.37038361  0.02302837  0.99650528    -0.74000
O3          O  0.32902011  0.02448762  0.93009022    -0.62700
O4          O  0.32730492  0.02097416  0.06086165    -0.71100
O5          O  0.32761722  0.97444948  0.05767192    -0.70600
O6          O  0.32900090  0.97799937  0.92713461    -0.61900
O7          O  0.37074872  0.97657550  0.99292449    -0.74400
O8          O  0.28617189  0.97580007  0.99187732    -0.73200
Cu9        Cu  0.32806848  0.02434013  0.99544066     1.04600
Cu10       Cu  0.32840574  0.97460959  0.99229596     1.04300
C11         C  0.27261712  0.99893819  0.99208927     0.93100
C12         C  0.38400145  0.99991077  0.99464532     0.92300
C13         C  0.32920899  0.00170641  0.90788850     0.84400
C14         C  0.32732907  0.99719910  0.07993645     0.90700
O15         O  0.29331988  0.97358981  0.49605049    -0.73100
O16         O  0.37765054  0.97401586  0.49563314    -0.74000
O17         O  0.33531162  0.97636111  0.56059174    -0.62700
O18         O  0.33518586  0.97128436  0.42989995    -0.71100
O19         O  0.33659182  0.01775612  0.42663635    -0.70600
O20         O  0.33419335  0.02279130  0.55719896    -0.61900
O21         O  0.37759687  0.02049969  0.49339773    -0.74400
O22         O  0.29307587  0.01995860  0.49023441    -0.73200
Cu23       Cu  0.33542667  0.97219801  0.49558787     1.04600
Cu24       Cu  0.33537941  0.02186497  0.49168543     1.04300
C25         C  0.27984720  0.99669032  0.49335995     0.93100
C26         C  0.39100435  0.99730304  0.49515713     0.92300
C27         C  0.33441313  0.00029239  0.57961882     0.84400
C28         C  0.33582271  0.99383482  0.40759999     0.90700
O29         O  0.96717691  0.65667883  0.07130711    -0.73100
O30         O  0.96626004  0.65628694  0.94058443    -0.74000
O31         O  0.96818388  0.61420056  0.00596654    -0.62700
O32         O  0.96516251  0.69874885  0.00567098    -0.71100
O33         O  0.01174583  0.70017782  0.00658033    -0.70600
O34         O  0.01469158  0.61579504  0.00343979    -0.61900
O35         O  0.01279979  0.65837662  0.93929073    -0.74400
O36         O  0.01375018  0.65713864  0.06979484    -0.73200
Cu37       Cu  0.96506708  0.65642004  0.00588396     1.04600
Cu38       Cu  0.01484737  0.65796115  0.00467123     1.04300
C39         C  0.99070914  0.65666940  0.09125174     0.93100
C40         C  0.98933692  0.65735689  0.91923310     0.92300
C41         C  0.99191230  0.60160877  0.00496566     0.84400
C42         C  0.98803908  0.71280525  0.00650403     0.90700
O43         O  0.96796957  0.70347010  0.50248997    -0.73100
O44         O  0.96827511  0.61921891  0.50575053    -0.74000
O45         O  0.96726192  0.66237897  0.56971132    -0.62700
O46         O  0.96913541  0.66040938  0.43916536    -0.71100
O47         O  0.01569130  0.66123273  0.44066274    -0.70600
O48         O  0.01381148  0.66133514  0.57143167    -0.61900
O49         O  0.01482269  0.61903428  0.50622415    -0.74400
O50         O  0.01451785  0.70375542  0.50651028    -0.73200
Cu51       Cu  0.96657012  0.66137417  0.50426469     1.04600
Cu52       Cu  0.01635409  0.66138301  0.50620859     1.04300
C53         C  0.99117138  0.71691197  0.50394237     0.93100
C54         C  0.99147529  0.60571851  0.50661638     0.92300
C55         C  0.99017579  0.66164792  0.59128981     0.84400
C56         C  0.99272210  0.66076749  0.41918746     0.90700
O57         O  0.65157158  0.02262095  0.92000786    -0.73100
O58         O  0.65229640  0.01978926  0.05039266    -0.74000
O59         O  0.69377818  0.02185772  0.98400089    -0.62700
O60         O  0.60984462  0.02091706  0.98619628    -0.71100
O61         O  0.60960213  0.97443629  0.98420400    -0.70600
O62         O  0.69478461  0.97542701  0.97860990    -0.61900
O63         O  0.65349357  0.97332731  0.04748044    -0.74400
O64         O  0.65087557  0.97612390  0.91678593    -0.73200
Cu65       Cu  0.65183634  0.02283215  0.98530183     1.04600
Cu66       Cu  0.65220571  0.97313977  0.98178552     1.04300
C67         C  0.65130606  0.99986307  0.89773121     0.93100
C68         C  0.65297631  0.99613699  0.06970303     0.92300
C69         C  0.70760706  0.99904478  0.97986928     0.84400
C70         C  0.59629177  0.99777622  0.98563962     0.90700
O71         O  0.65995992  0.97767123  0.55014138    -0.73100
O72         O  0.65557982  0.97499182  0.41986745    -0.74000
O73         O  0.69995871  0.97594169  0.48071924    -0.62700
O74         O  0.61604950  0.97655501  0.48913033    -0.71100
O75         O  0.61573972  0.02301668  0.48599368    -0.70600
O76         O  0.70025324  0.02252756  0.48158338    -0.61900
O77         O  0.65665988  0.02146884  0.41807075    -0.74400
O78         O  0.65915348  0.02418074  0.54879729    -0.73200
Cu79       Cu  0.65792944  0.97470851  0.48501313     1.04600
Cu80       Cu  0.65801264  0.02445308  0.48348145     1.04300
C81         C  0.65953485  0.00127674  0.57017454     0.93100
C82         C  0.65549923  0.99779904  0.39824388     0.92300
C83         C  0.71338246  0.99913754  0.48016057     0.84400
C84         C  0.60255845  0.99971876  0.48903414     0.90700
N85         N  0.96073932  0.02781959  0.98936423    -0.36700
N86         N  0.95799254  0.96687275  0.98125614    -0.57300
N87         N  0.01804726  0.96475168  0.99765919    -0.36700
N88         N  0.02052872  0.02560760  0.00016606    -0.57300
C89         C  0.93568900  0.02412657  0.96948065     0.26900
C90         C  0.96799939  0.05504818  0.98444739     0.26900
C91         C  0.01213734  0.93783231  0.98665761     0.26900
C92         C  0.04569325  0.96909097  0.98911079     0.26900
C93         C  0.93044111  0.97353854  0.98471944     0.35500
C94         C  0.96051251  0.94002638  0.99479755     0.35500
C95         C  0.01611732  0.05231499  0.01351139     0.35500
C96         C  0.04720937  0.01923360  0.01090281     0.35500
C97         C  0.92724279  0.04920216  0.95091468    -0.22000
C98         C  0.94755863  0.06880386  0.96070953    -0.22000
C99         C  0.03624440  0.92485667  0.97102441    -0.22000
C100        C  0.05737385  0.94464006  0.97224510    -0.22000
C101        C  0.91538896  0.95086193  0.00048540    -0.23100
C102        C  0.93446335  0.92969919  0.00717078    -0.23100
C103        C  0.04000722  0.06283914  0.03353844    -0.23100
C104        C  0.05986916  0.04193391  0.03137506    -0.23100
C105        C  0.91885271  0.99974792  0.97293969    -0.18400
C106        C  0.99186016  0.06792414  0.00315769    -0.18400
C107        C  0.06080496  0.99399976  0.99899885    -0.18400
C108        C  0.98586689  0.92446436  0.99326965    -0.18400
H109        H  0.90799846  0.05317502  0.93333810     0.14500
H110        H  0.94720643  0.09072158  0.95173279     0.14500
H111        H  0.03838909  0.90335878  0.95991437     0.14500
H112        H  0.07896400  0.94121119  0.96243937     0.14500
H113        H  0.89309441  0.94979182  0.00727754     0.12800
H114        H  0.92962461  0.90912624  0.01984190     0.12800
H115        H  0.04310942  0.08362097  0.04711890     0.12800
H116        H  0.08122419  0.04331389  0.04319856     0.12800
H117        H  0.97040499  0.01368391  0.01020126     0.26000
H118        H  0.00471765  0.97812632  0.01444765     0.26000
N119        N  0.96559484  0.97005420  0.48591896    -0.36700
N120        N  0.96643426  0.03054993  0.48438423    -0.57300
N121        N  0.02711580  0.02977843  0.49236604    -0.36700
N122        N  0.02607636  0.96900020  0.49851123    -0.57300
C123        C  0.93812838  0.97618291  0.49210417     0.26900
C124        C  0.96966273  0.94372923  0.50078358     0.26900
C125        C  0.02134087  0.05679942  0.50307445     0.26900
C126        C  0.05327789  0.02411618  0.50704942     0.26900
C127        C  0.93978200  0.02610255  0.47102878     0.35500
C128        C  0.97209999  0.05787452  0.47707179     0.35500
C129        C  0.02102967  0.94159794  0.48984869     0.35500
C130        C  0.05375048  0.97321154  0.49090805     0.35500
C131        C  0.92466871  0.95364040  0.51146376    -0.22000
C132        C  0.94462187  0.93314114  0.51701702    -0.22000
C133        C  0.04403644  0.06832997  0.52508833    -0.22000
C134        C  0.06422737  0.04772387  0.52746193    -0.22000
C135        C  0.92854886  0.05063292  0.45450071    -0.23100
C136        C  0.94902988  0.07083545  0.45850815    -0.23100
C137        C  0.04552085  0.92833484  0.47660469    -0.23100
C138        C  0.06623548  0.94840884  0.47698326    -0.23100
C139        C  0.92474081  0.00101521  0.47838310    -0.18400
C140        C  0.99481671  0.92829600  0.49615253    -0.18400
C141        C  0.06800760  0.99870310  0.49969167    -0.18400
C142        C  0.99679239  0.07164611  0.49111317    -0.18400
H143        H  0.90271229  0.95203562  0.52039159     0.14500
H144        H  0.94101617  0.91261621  0.53083030     0.14500
H145        H  0.04599498  0.08947163  0.53781689     0.14500
H146        H  0.08468341  0.04991425  0.54238016     0.14500
H147        H  0.90755995  0.05383852  0.44205584     0.12800
H148        H  0.94698486  0.09267114  0.44961338     0.12800
H149        H  0.04818638  0.90651973  0.46748045     0.12800
H150        H  0.08800325  0.94500972  0.46817820     0.12800
H151        H  0.97982113  0.98170124  0.46777121     0.26000
H152        H  0.01533577  0.01695326  0.47195388     0.26000
O153        O  0.01799417  0.33331516  0.95651129    -0.73100
O154        O  0.01544411  0.33478377  0.08740900    -0.74000
O155        O  0.01572340  0.29191907  0.02207220    -0.62700
O156        O  0.01770759  0.37626597  0.02132974    -0.71100
O157        O  0.97118142  0.37715883  0.01926480    -0.70600
O158        O  0.96911899  0.29286426  0.02284961    -0.61900
O159        O  0.96891803  0.33654436  0.08602029    -0.74400
O160        O  0.97143107  0.33351496  0.95574750    -0.73200
Cu161      Cu  0.01834965  0.33403354  0.02197586     1.04600
Cu162      Cu  0.96856451  0.33505870  0.02089172     1.04300
C163        C  0.99491673  0.33298061  0.93539104     0.93100
C164        C  0.99185647  0.33608608  0.10743755     0.92300
C165        C  0.99213971  0.27907382  0.02245489     0.84400
C166        C  0.99471689  0.39009695  0.01993202     0.90700
O167        O  0.02002051  0.33755891  0.58597502    -0.73100
O168        O  0.01682071  0.33976563  0.45484709    -0.74000
O169        O  0.01726329  0.38116726  0.52210757    -0.62700
O170        O  0.01977819  0.29649860  0.51760524    -0.71100
O171        O  0.97324470  0.29540508  0.52173901    -0.70600
O172        O  0.97074395  0.37975823  0.52342161    -0.61900
O173        O  0.97030127  0.33795291  0.45755163    -0.74400
O174        O  0.97347175  0.33701424  0.58738333    -0.73200
Cu175      Cu  0.02013627  0.33884178  0.52010434     1.04600
Cu176      Cu  0.97038272  0.33751125  0.52268384     1.04300
C177        C  0.99693703  0.33666159  0.60740733     0.93100
C178        C  0.99307026  0.33903160  0.43550773     0.92300
C179        C  0.99358806  0.39388477  0.52262755     0.84400
C180        C  0.99680042  0.28262175  0.51904675     0.90700
C181        C  0.99681663  0.33492027  0.65559990    -0.01400
C182        C  0.97109749  0.33301442  0.67770234    -0.09400
C183        C  0.96999876  0.33152092  0.72289355    -0.18300
C184        C  0.99477423  0.33200150  0.74803972     0.04100
C185        C  0.02096804  0.33327793  0.72566321     0.18300
C186        C  0.02178486  0.33475490  0.67982169    -0.19700
C187        C  0.04610499  0.33325149  0.74924229    -0.21000
C188        C  0.04576096  0.33245632  0.79460349    -0.19500
C189        C  0.02027013  0.33187224  0.81754895     0.19700
C190        C  0.99440724  0.33151029  0.79454715     0.01800
C191        C  0.96923140  0.33114142  0.81912707    -0.14200
C192        C  0.96969056  0.33145184  0.86446121    -0.11900
C193        C  0.99513466  0.33205040  0.88714661     0.01400
C194        C  0.02042707  0.33201359  0.86342036    -0.24100
H195        H  0.95146062  0.33270520  0.65998429     0.09400
H196        H  0.94931772  0.33003957  0.73698835     0.12900
H197        H  0.04184438  0.33591813  0.66308403     0.11700
H198        H  0.06617516  0.33402474  0.73249972     0.12800
H199        H  0.06557806  0.33263203  0.81187753     0.11900
H200        H  0.94872432  0.33093453  0.80447879     0.09000
H201        H  0.94983527  0.33139149  0.88182301     0.12200
H202        H  0.04028131  0.33241929  0.88060824     0.14100
C203        C  0.99106188  0.33708149  0.15564163    -0.01400
C204        C  0.96551844  0.34053935  0.17790998    -0.09400
C205        C  0.96462686  0.34139079  0.22338542    -0.18300
C206        C  0.98942845  0.33868402  0.24825303     0.04100
C207        C  0.01526904  0.33521272  0.22542261     0.18300
C208        C  0.01585350  0.33453527  0.17972382    -0.19700
C209        C  0.04044876  0.33229586  0.24827263    -0.21000
C210        C  0.04060021  0.33265966  0.29348592    -0.19500
C211        C  0.01558640  0.33602200  0.31697874     0.19700
C212        C  0.98959367  0.33914206  0.29482842     0.01800
C213        C  0.96498577  0.34246586  0.32034898    -0.14200
C214        C  0.96620560  0.34245164  0.36580552    -0.11900
C215        C  0.99190117  0.33929832  0.38736671     0.01400
C216        C  0.01649782  0.33618564  0.36264700    -0.24100
H217        H  0.94603022  0.34263993  0.16012400     0.09400
H218        H  0.94419748  0.34410017  0.23802616     0.12900
H219        H  0.03574683  0.33182935  0.16288545     0.11700
H220        H  0.06019535  0.32962631  0.23103554     0.12800
H221        H  0.06045904  0.33025955  0.31021690     0.11900
H222        H  0.94447382  0.34507375  0.30624578     0.09000
H223        H  0.94687479  0.34501105  0.38413896     0.12200
H224        H  0.03648757  0.33363670  0.37897716     0.14100
C225        C  0.99636630  0.10279155  0.49598602    -0.01400
C226        C  0.97687796  0.11560119  0.52397719    -0.09400
C227        C  0.97640840  0.14470894  0.52941096    -0.18300
C228        C  0.99571228  0.16208409  0.50705088     0.04100
C229        C  0.01572447  0.14889108  0.47910194     0.18300
C230        C  0.01571588  0.11956265  0.47356645    -0.19700
C231        C  0.03571611  0.16503230  0.45701069    -0.21000
C232        C  0.03638789  0.19405338  0.46215205    -0.19500
C233        C  0.01676975  0.20775187  0.48892350     0.19700
C234        C  0.99594623  0.19200376  0.51145246     0.01800
C235        C  0.97602693  0.20696773  0.53685689    -0.14200
C236        C  0.97656675  0.23623495  0.53926661    -0.11900
C237        C  0.99723781  0.25159911  0.51736370     0.01400
C238        C  0.01754556  0.23720444  0.49271219    -0.24100
H239        H  0.96199261  0.10291428  0.54197022     0.09400
H240        H  0.96088319  0.15289747  0.55172226     0.12900
H241        H  0.03089910  0.10965269  0.45198423     0.11700
H242        H  0.05105825  0.15511832  0.43574427     0.12800
H243        H  0.05220948  0.20590787  0.44468348     0.11900
H244        H  0.95942228  0.19674264  0.55462899     0.09000
H245        H  0.96072566  0.24695161  0.55859742     0.12200
H246        H  0.03342440  0.24902440  0.47526589     0.14100
C247        C  0.99195370  0.09898418  0.00885862    -0.01400
C248        C  0.97119314  0.11219026  0.03410911    -0.09400
C249        C  0.97037336  0.14142418  0.03806604    -0.18300
C250        C  0.99051643  0.15842799  0.01679737     0.04100
C251        C  0.01193986  0.14474762  0.99214295     0.18300
C252        C  0.01223916  0.11540710  0.98797965    -0.19700
C253        C  0.03294145  0.16040546  0.97159740    -0.21000
C254        C  0.03327465  0.18946744  0.97506282    -0.19500
C255        C  0.01225563  0.20364899  0.99834991     0.19700
C256        C  0.99028154  0.18843117  0.01903867     0.01800
C257        C  0.96886145  0.20398820  0.04033524    -0.14200
C258        C  0.96941783  0.23333585  0.04116432    -0.11900
C259        C  0.99155265  0.24807582  0.02172432     0.01400
C260        C  0.01295002  0.23307395  0.00055971    -0.24100
H261        H  0.95542211  0.09975649  0.05066506     0.09400
H262        H  0.95386591  0.15006302  0.05818219     0.12900
H263        H  0.02822919  0.10522920  0.96817844     0.11700
H264        H  0.04935427  0.15007839  0.95289454     0.12800
H265        H  0.04994899  0.20096881  0.95897056     0.11900
H266        H  0.95118098  0.19411643  0.05601513     0.09000
H267        H  0.95258825  0.24456544  0.05752185     0.12200
H268        H  0.02987668  0.24440742  0.98475494     0.14100
C269        C  0.74430216  0.99887148  0.47818370    -0.01400
C270        C  0.75845610  0.97894606  0.45260167    -0.09400
C271        C  0.78779829  0.97871680  0.45052466    -0.18300
C272        C  0.80392075  0.99816276  0.47497918     0.04100
C273        C  0.78927811  0.01773742  0.50193880     0.18300
C274        C  0.75980345  0.01825843  0.50261643    -0.19700
C275        C  0.80409607  0.03657006  0.52839577    -0.21000
C276        C  0.83325264  0.03657765  0.52857367    -0.19500
C277        C  0.84831960  0.01813994  0.50165524     0.19700
C278        C  0.83395887  0.99877972  0.47411972     0.01800
C279        C  0.85034702  0.98105666  0.44690552    -0.14200
C280        C  0.87967925  0.98232141  0.44760479    -0.11900
C281        C  0.89356384  0.00112019  0.47540971     0.01400
C282        C  0.87776270  0.01894911  0.50229638    -0.24100
H283        H  0.74673309  0.96371235  0.43361292     0.09400
H284        H  0.79722034  0.96286949  0.42996718     0.12900
H285        H  0.74884108  0.03338570  0.52305672     0.11700
H286        H  0.79304145  0.05131349  0.54933680     0.12800
H287        H  0.84411111  0.05131266  0.54966777     0.11900
H288        H  0.84114957  0.96611890  0.42462801     0.09000
H289        H  0.89166621  0.96834381  0.42665928     0.12200
H290        H  0.88853275  0.03330771  0.52415526     0.14100
C291        C  0.65196804  0.00103474  0.84965574    -0.01400
C292        C  0.65857717  0.02616339  0.82859393    -0.09400
C293        C  0.65993808  0.02738312  0.78324810    -0.18300
C294        C  0.65458890  0.00334636  0.75729605     0.04100
C295        C  0.64812119  0.97782412  0.77889368     0.18300
C296        C  0.64678408  0.97692469  0.82454700    -0.19700
C297        C  0.64328735  0.95325619  0.75484758    -0.21000
C298        C  0.64517586  0.95333977  0.70968469    -0.19500
C299        C  0.65146381  0.97809741  0.68744060     0.19700
C300        C  0.65576821  0.00359685  0.71079714     0.01800
C301        C  0.66089896  0.02821042  0.68651457    -0.14200
C302        C  0.66225647  0.02735786  0.64108233    -0.11900
C303        C  0.65874662  0.00202205  0.61833963     0.01400
C304        C  0.65329211  0.97748886  0.64181921    -0.24100
H305        H  0.66309493  0.04499370  0.84727075     0.09400
H306        H  0.66559260  0.04736831  0.76958980     0.12900
H307        H  0.64177121  0.95732760  0.84055012     0.11700
H308        H  0.63831191  0.93375215  0.77111241     0.12800
H309        H  0.64161779  0.93389572  0.69200850     0.11900
H310        H  0.66364878  0.04850899  0.70156331     0.09000
H311        H  0.66611058  0.04668900  0.62369785     0.12200
H312        H  0.65001255  0.95784623  0.62451799     0.14100
C313        C  0.65294316  0.99530702  0.11801221    -0.01400
C314        C  0.65192517  0.96968890  0.14008592    -0.09400
C315        C  0.65167932  0.96891534  0.18561332    -0.18300
C316        C  0.65252312  0.99392263  0.21075420     0.04100
C317        C  0.65339414  0.01984517  0.18815254     0.18300
C318        C  0.65358809  0.02029482  0.14241795    -0.19700
C319        C  0.65414537  0.04524836  0.21126978    -0.21000
C320        C  0.65427699  0.04553554  0.25652297    -0.19500
C321        C  0.65371036  0.02042437  0.27982580     0.19700
C322        C  0.65270674  0.99421978  0.25737357     0.01800
C323        C  0.65215141  0.96952206  0.28263504    -0.14200
C324        C  0.65290383  0.97083315  0.32808470    -0.11900
C325        C  0.65416498  0.99669794  0.35002496     0.01400
C326        C  0.65436728  0.02142340  0.32556793    -0.24100
H327        H  0.65124435  0.95006145  0.12210620     0.09400
H328        H  0.65085247  0.94840875  0.20008591     0.12900
H329        H  0.65430813  0.04028229  0.12579649     0.11700
H330        H  0.65474218  0.06507471  0.19420713     0.12800
H331        H  0.65498548  0.06557138  0.27342569     0.11900
H332        H  0.65129433  0.94884187  0.26831121     0.09000
H333        H  0.65262115  0.95137947  0.34610984     0.12200
H334        H  0.65525597  0.04157997  0.34212244     0.14100
C335        C  0.73858499  0.00051200  0.97632029    -0.01400
C336        C  0.75291978  0.02269776  0.99643708    -0.09400
C337        C  0.78205407  0.02491358  0.99341813    -0.18300
C338        C  0.79801077  0.00497910  0.96963452     0.04100
C339        C  0.78328881  0.98326457  0.94731733     0.18300
C340        C  0.75385945  0.98095929  0.95136895    -0.19700
C341        C  0.79808929  0.96391153  0.92145388    -0.21000
C342        C  0.82729644  0.96497446  0.91869000    -0.19500
C343        C  0.84248432  0.98503117  0.94247286     0.19700
C344        C  0.82802408  0.00550305  0.96796512     0.01800
C345        C  0.84426678  0.02484273  0.99230070    -0.14200
C346        C  0.87346748  0.02304343  0.99302614    -0.11900
C347        C  0.88770429  0.00256504  0.96859254     0.01400
C348        C  0.87206797  0.98410077  0.94231891    -0.24100
H349        H  0.74152148  0.03834285  0.01521087     0.09400
H350        H  0.79138756  0.04257736  0.00997922     0.12900
H351        H  0.74279466  0.96418780  0.93463132     0.11700
H352        H  0.78702332  0.94761192  0.90366493     0.12800
H353        H  0.83812693  0.94942656  0.89891426     0.11900
H354        H  0.83507466  0.04093517  0.01260213     0.09000
H355        H  0.88502941  0.03739025  0.01382695     0.12200
H356        H  0.88296403  0.96829209  0.92310675     0.14100
C357        C  0.99113312  0.57454781  0.50856304    -0.01400
C358        C  0.96556935  0.55992848  0.50766999    -0.09400
C359        C  0.96482959  0.53067012  0.51019737    -0.18300
C360        C  0.98982109  0.51481586  0.51380095     0.04100
C361        C  0.01573621  0.52969254  0.51461938     0.18300
C362        C  0.01616776  0.55918141  0.51202619    -0.19700
C363        C  0.04111129  0.51505399  0.51803797    -0.21000
C364        C  0.04137593  0.48592116  0.52049613    -0.19500
C365        C  0.01626875  0.47061653  0.51976216     0.19700
C366        C  0.99008601  0.48480873  0.51655199     0.01800
C367        C  0.96537425  0.46829202  0.51621928    -0.14200
C368        C  0.96665902  0.43903743  0.51868322    -0.11900
C369        C  0.99251369  0.42508248  0.52150059     0.01400
C370        C  0.01725003  0.44113370  0.52210804    -0.24100
H371        H  0.94587843  0.57115794  0.50505046     0.09400
H372        H  0.94432782  0.52111815  0.50923810     0.12900
H373        H  0.03610592  0.57017611  0.51288236     0.11700
H374        H  0.06094579  0.52622459  0.51872434     0.12800
H375        H  0.06141154  0.47526923  0.52298810     0.11900
H376        H  0.94468900  0.47730816  0.51400631     0.09000
H377        H  0.94718832  0.42727527  0.51802313     0.12200
H378        H  0.03741194  0.43067294  0.52426290     0.14100
C379        C  0.99088641  0.74785898  0.50230340    -0.01400
C380        C  0.97225779  0.76170930  0.47461973    -0.09400
C381        C  0.97193049  0.79099232  0.47248633    -0.18300
C382        C  0.98994854  0.80745120  0.49892375     0.04100
C383        C  0.00829793  0.79318389  0.52779416     0.18300
C384        C  0.00895542  0.76369393  0.52863378    -0.19700
C385        C  0.02581350  0.80841160  0.55583112    -0.21000
C386        C  0.02577385  0.83757457  0.55559994    -0.19500
C387        C  0.00856602  0.85226795  0.52680952     0.19700
C388        C  0.99042501  0.83746662  0.49791315     0.01800
C389        C  0.97385270  0.85338833  0.46897230    -0.14200
C390        C  0.97548478  0.88263786  0.46853559    -0.11900
C391        C  0.99333800  0.89705752  0.49712482     0.01400
C392        C  0.00962551  0.88173816  0.52647581    -0.24100
H393        H  0.95813998  0.74977232  0.45397843     0.09400
H394        H  0.95715783  0.80008175  0.45014883     0.12900
H395        H  0.02314786  0.75299812  0.55052777     0.11700
H396        H  0.03963604  0.79767456  0.57819644     0.12800
H397        H  0.03958660  0.84872360  0.57775765     0.11900
H398        H  0.95973242  0.84388292  0.44582708     0.09000
H399        H  0.96278834  0.89414565  0.44552282     0.12200
H400        H  0.02332337  0.89286373  0.54886945     0.14100
C401        C  0.99530465  0.42122449  0.01882429    -0.01400
C402        C  0.02085020  0.43570020  0.01545373    -0.09400
C403        C  0.02148033  0.46498238  0.01327106    -0.18300
C404        C  0.99639739  0.48091052  0.01447643     0.04100
C405        C  0.97058102  0.46614533  0.01881851     0.18300
C406        C  0.97026165  0.43669430  0.02077784    -0.19700
C407        C  0.94515945  0.48083087  0.02104103    -0.21000
C408        C  0.94473521  0.50993955  0.01876859    -0.19500
C409        C  0.96970393  0.52512484  0.01387334     0.19700
C410        C  0.99592770  0.51087624  0.01155206     0.01800
C411        C  0.02045241  0.52728085  0.00613915    -0.14200
C412        C  0.01897959  0.55650687  0.00361020    -0.11900
C413        C  0.99311561  0.57048646  0.00630152     0.01400
C414        C  0.96854138  0.55455002  0.01129142    -0.24100
H415        H  0.04054043  0.42434011  0.01412743     0.09400
H416        H  0.04194396  0.47449411  0.01066302     0.12900
H417        H  0.95035307  0.42579848  0.02376469     0.11700
H418        H  0.92541982  0.46971100  0.02454304     0.12800
H419        H  0.92468153  0.52065325  0.02062731     0.11900
H420        H  0.04111324  0.51818806  0.00364886     0.09000
H421        H  0.03831606  0.56821725  0.99964447     0.12200
H422        H  0.94838236  0.56505996  0.01344922     0.14100
C423        C  0.98875388  0.65752027  0.87106375    -0.01400
C424        C  0.96381254  0.66385595  0.84922948    -0.09400
C425        C  0.96291059  0.66435836  0.80384115    -0.18300
C426        C  0.98707324  0.65830822  0.77852753     0.04100
C427        C  0.01235363  0.65176945  0.80083536     0.18300
C428        C  0.01297945  0.65147086  0.84661777    -0.19700
C429        C  0.03690941  0.64577158  0.77733322    -0.21000
C430        C  0.03707670  0.64667659  0.73206157    -0.19500
C431        C  0.01262589  0.65334048  0.70914977     0.19700
C432        C  0.98714496  0.65882598  0.73198212     0.01800
C433        C  0.96287349  0.66463694  0.70717553    -0.14200
C434        C  0.96401220  0.66551892  0.66178677    -0.11900
C435        C  0.98928976  0.66077688  0.63947268     0.01400
C436        C  0.01351724  0.65456065  0.66343358    -0.24100
H437        H  0.94485797  0.66880760  0.86735128     0.09400
H438        H  0.94300256  0.66979468  0.78966737     0.12900
H439        H  0.03237448  0.64641970  0.86323471     0.11700
H440        H  0.05621087  0.64062278  0.79410225     0.12800
H441        H  0.05650816  0.64221499  0.71484344     0.11900
H442        H  0.94262139  0.66851017  0.72175832     0.09000
H443        H  0.94493148  0.67010685  0.64409032     0.12200
H444        H  0.03312631  0.65042945  0.64647858     0.14100
C445        C  0.99147233  0.65621913  0.13940845    -0.01400
C446        C  0.01689476  0.65159121  0.16103094    -0.09400
C447        C  0.01817623  0.65199603  0.20640770    -0.18300
C448        C  0.99392218  0.65727506  0.23188841     0.04100
C449        C  0.96801583  0.66125309  0.20981328     0.18300
C450        C  0.96701790  0.66066531  0.16407675    -0.19700
C451        C  0.94326411  0.66593717  0.23349228    -0.21000
C452        C  0.94362691  0.66667217  0.27875329    -0.19500
C453        C  0.96880124  0.66305251  0.30143975     0.19700
C454        C  0.99439742  0.65863420  0.27839479     0.01800
C455        C  0.01934443  0.65599588  0.30295602    -0.14200
C456        C  0.01874066  0.65699761  0.34841263    -0.11900
C457        C  0.99335231  0.66055626  0.37096989     0.01400
C458        C  0.96848740  0.66380803  0.34716680    -0.24100
H459        H  0.03602635  0.64763418  0.14277989     0.09400
H460        H  0.03847383  0.64804402  0.22047517     0.12900
H461        H  0.94718292  0.66406572  0.14768100     0.11700
H462        H  0.92345006  0.66896535  0.21688911     0.12800
H463        H  0.92406958  0.67019193  0.29614798     0.11900
H464        H  0.03969964  0.65325536  0.28809156     0.09000
H465        H  0.03829291  0.65469607  0.36596820     0.12200
H466        H  0.94874760  0.66697701  0.36424873     0.14100
C467        C  0.98715380  0.74385962  0.00739526    -0.01400
C468        C  0.00756371  0.75908696  0.03024678    -0.09400
C469        C  0.00716985  0.78842552  0.03096208    -0.18300
C470        C  0.98662138  0.80360417  0.00769071     0.04100
C471        C  0.96627893  0.78800384  0.98380719     0.18300
C472        C  0.96631571  0.75846623  0.98472636    -0.19700
C473        C  0.94643470  0.80196418  0.95832041    -0.21000
C474        C  0.94681369  0.83107354  0.95504508    -0.19500
C475        C  0.96643623  0.84705834  0.97833596     0.19700
C476        C  0.98603157  0.83362482  0.00613631     0.01800
C477        C  0.00417816  0.85085834  0.03105469    -0.14200
C478        C  0.00353043  0.88005973  0.02731128    -0.11900
C479        C  0.98521510  0.89319057  0.99817296     0.01400
C480        C  0.96665822  0.87643391  0.97382330    -0.24100
H481        H  0.02384884  0.74820781  0.04798726     0.09400
H482        H  0.02368448  0.79861889  0.04904958     0.12900
H483        H  0.95067595  0.74678159  0.96647551     0.11700
H484        H  0.93090776  0.79023900  0.93994485     0.12800
H485        H  0.93156898  0.84117087  0.93422576     0.11900
H486        H  0.01886092  0.84241649  0.05415657     0.09000
H487        H  0.01764885  0.89254148  0.04715429     0.11400
H488        H  0.95239932  0.88631093  0.95114176     0.14100
C489        C  0.42212335  0.99736635  0.49682331    -0.01400
C490        C  0.43676832  0.97286138  0.50733652    -0.09400
C491        C  0.46607893  0.97255426  0.50845662    -0.18300
C492        C  0.48188169  0.99686673  0.49861721     0.04100
C493        C  0.46692646  0.02183310  0.48876519     0.18300
C494        C  0.43739838  0.02188244  0.48808235    -0.19700
C495        C  0.48151595  0.04656597  0.47924659    -0.21000
C496        C  0.51072134  0.04700605  0.47876287    -0.19500
C497        C  0.52608830  0.02267493  0.48748879     0.19700
C498        C  0.51191150  0.99725024  0.49768996     0.01800
C499        C  0.52843213  0.97321478  0.50575514    -0.14200
C500        C  0.55765314  0.97428240  0.50306066    -0.11900
C501        C  0.57154066  0.99928322  0.49262616     0.01400
C502        C  0.55559572  0.02352509  0.48541261    -0.24100
H503        H  0.42551105  0.95373352  0.51487789     0.09400
H504        H  0.47567746  0.95290030  0.51698895     0.12900
H505        H  0.42630190  0.04102126  0.48010200     0.11700
H506        H  0.47024728  0.06569425  0.47184836     0.12800
H507        H  0.52136568  0.06645987  0.47100657     0.11900
H508        H  0.51946393  0.95314219  0.51373094     0.09000
H509        H  0.56943642  0.95528430  0.50917869     0.12200
H510        H  0.56611729  0.04300369  0.47735318     0.14100
C511        C  0.09940243  0.99881338  0.50170346    -0.01400
C512        C  0.11377976  0.97925575  0.52719575    -0.09400
C513        C  0.14310037  0.97804311  0.52681062    -0.18300
C514        C  0.15914205  0.99701989  0.50168021     0.04100
C515        C  0.14452467  0.01805471  0.47826441     0.18300
C516        C  0.11500404  0.01838097  0.47771183    -0.19700
C517        C  0.15946142  0.03864613  0.45556135    -0.21000
C518        C  0.18868434  0.03883957  0.45566204    -0.19500
C519        C  0.20369780  0.01779620  0.47700326     0.19700
C520        C  0.18913159  0.99616588  0.49943092     0.01800
C521        C  0.20520374  0.97432684  0.51782055    -0.14200
C522        C  0.23449255  0.97441400  0.51503912    -0.11900
C523        C  0.24878310  0.99642023  0.49460109     0.01400
C524        C  0.23323201  0.01807244  0.47563909    -0.24100
H525        H  0.10219550  0.96452886  0.54711104     0.09400
H526        H  0.15262666  0.96237165  0.54713268     0.12900
H527        H  0.10406266  0.03385381  0.45837901     0.11700
H528        H  0.14845854  0.05492126  0.43800877     0.12800
H529        H  0.19962124  0.05529250  0.43825874     0.11900
H530        H  0.19571763  0.95660848  0.53380977     0.09000
H531        H  0.24605515  0.95733141  0.52962364     0.12200
H532        H  0.24413474  0.03490623  0.45903738     0.14100
C533        C  0.56506220  0.99844962  0.98672656    -0.01400
C534        C  0.55104125  0.02414094  0.99190813    -0.09400
C535        C  0.52176455  0.02545712  0.99326972    -0.18300
C536        C  0.50521557  0.00094264  0.98939123     0.04100
C537        C  0.51942856  0.97490262  0.98361978     0.18300
C538        C  0.54902381  0.97386471  0.98247285    -0.19700
C539        C  0.50400525  0.95004130  0.97907812    -0.21000
C540        C  0.47477912  0.95041485  0.98042057    -0.19500
C541        C  0.46016369  0.97564462  0.98649398     0.19700
C542        C  0.47513814  0.00131137  0.99104507     0.01800
C543        C  0.45930739  0.02617207  0.99719887    -0.14200
C544        C  0.42996178  0.02554409  0.99856648    -0.11900
C545        C  0.41524564  0.00022010  0.99397780     0.01400
C546        C  0.43059811  0.97531995  0.98802384    -0.24100
H547        H  0.56276781  0.04352145  0.99514844     0.09400
H548        H  0.51276948  0.04604028  0.99738140     0.12900
H549        H  0.55955265  0.95386370  0.97816844     0.11700
H550        H  0.51462922  0.93012230  0.97450097     0.12800
H551        H  0.46351293  0.93077108  0.97682125     0.11900
H552        H  0.46892795  0.04648692  0.00111081     0.09000
H553        H  0.41874436  0.04510922  0.00324866     0.12200
H554        H  0.41952695  0.95556641  0.98430937     0.14100
C555        C  0.32962779  0.00270166  0.85967409    -0.01400
C556        C  0.32881071  0.02840648  0.83780445    -0.09400
C557        C  0.32925575  0.02934273  0.79229911    -0.18300
C558        C  0.33059533  0.00441806  0.76703987     0.04100
C559        C  0.33122528  0.97842269  0.78949646     0.18300
C560        C  0.33076317  0.97781455  0.83516855    -0.19700
C561        C  0.33236252  0.95308030  0.76631382    -0.21000
C562        C  0.33301677  0.95290412  0.72112093    -0.19500
C563        C  0.33264987  0.97806843  0.69797819     0.19700
C564        C  0.33140961  0.00424226  0.72044500     0.01800
C565        C  0.33118991  0.02898081  0.69519890    -0.14200
C566        C  0.33222242  0.02768012  0.64969138    -0.11900
C567        C  0.33346771  0.00178467  0.62782828     0.01400
C568        C  0.33361694  0.97709600  0.65233255    -0.24100
H569        H  0.32780494  0.04797146  0.85592031     0.09400
H570        H  0.32853198  0.04988155  0.77792126     0.12900
H571        H  0.33135271  0.95778058  0.85166430     0.11700
H572        H  0.33278956  0.93321426  0.78327393     0.12800
H573        H  0.33392936  0.93290340  0.70413078     0.11900
H574        H  0.33031090  0.04964658  0.70959211     0.09000
H575        H  0.33203434  0.04709717  0.63157364     0.12200
H576        H  0.33453603  0.95691156  0.63585380     0.14100
C577        C  0.33522003  0.99250455  0.35948883    -0.01400
C578        C  0.32166429  0.97040652  0.33781537    -0.09400
C579        C  0.31958153  0.97010096  0.29234839    -0.18300
C580        C  0.33138683  0.99188995  0.26701731     0.04100
C581        C  0.34544242  0.01403184  0.28936683     0.18300
C582        C  0.34717597  0.01414065  0.33500480    -0.19700
C583        C  0.35744304  0.03618319  0.26614038    -0.21000
C584        C  0.35537439  0.03719158  0.22107094    -0.19500
C585        C  0.34159137  0.01587317  0.19801132     0.19700
C586        C  0.32969443  0.99267753  0.22047842     0.01800
C587        C  0.31687511  0.97127136  0.19525419    -0.14200
C588        C  0.31610321  0.97284001  0.14978953    -0.11900
C589        C  0.32750827  0.99595748  0.12804258     0.01400
C590        C  0.33997933  0.01750824  0.15242117    -0.24100
H591        H  0.31199004  0.95362308  0.35617804     0.09400
H592        H  0.30834450  0.95271583  0.27806992     0.12900
H593        H  0.35782580  0.03124428  0.35160974     0.11700
H594        H  0.36830070  0.05302468  0.28300999     0.12800
H595        H  0.36471831  0.05476483  0.20409476     0.11900
H596        H  0.30758888  0.95289078  0.20961124     0.09000
H597        H  0.30635346  0.95593180  0.13153171     0.12200
H598        H  0.34918380  0.03528556  0.13572730     0.14100
C599        C  0.09207573  0.99423704  0.99548959    -0.01400
C600        C  0.10541731  0.01295659  0.96713584    -0.09400
C601        C  0.13471052  0.01430209  0.96457816    -0.18300
C602        C  0.15174732  0.99676594  0.99045810     0.04100
C603        C  0.13801985  0.97739901  0.01853397     0.18300
C604        C  0.10851761  0.97645978  0.02101374    -0.19700
C605        C  0.15380684  0.95911913  0.04413998    -0.21000
C606        C  0.18298366  0.95950695  0.04245477    -0.19500
C607        C  0.19716909  0.97854806  0.01573822     0.19700
C608        C  0.18183054  0.99771983  0.98965612     0.01800
C609        C  0.19734188  0.01723829  0.96458174    -0.14200
C610        C  0.22673417  0.01776698  0.96578717    -0.11900
C611        C  0.24159747  0.99848760  0.99099603     0.01400
C612        C  0.22669624  0.97874402  0.01547475    -0.24100
H613        H  0.09300597  0.02675030  0.94695123     0.09400
H614        H  0.14336835  0.02918675  0.94193321     0.12900
H615        H  0.09824333  0.96200690  0.04308066     0.11700
H616        H  0.14349969  0.94430620  0.06554962     0.12800
H617        H  0.19456265  0.94498044  0.06260820     0.11900
H618        H  0.18738571  0.03263894  0.94427822     0.09000
H619        H  0.23793826  0.03309978  0.94645527     0.12200
H620        H  0.23817053  0.96395507  0.03536159     0.14100
loop_ 
_geom_bond_atom_site_label_1 
_geom_bond_atom_site_label_2 
_geom_bond_distance 
_geom_bond_site_symmetry_2 
_ccdc_geom_bond_type 
O1           Cu9   2.020       .  S
O1           C11   1.279   1_545  A
O2           Cu9   2.016       .  S
O2           C12   1.279   1_545  A
O3           Cu9   2.006       .  S
O3           C13   1.278       .  A
O4           Cu9   2.015   1_554  S
O4           C14   1.279   1_545  A
O5          Cu10   2.007   1_554  S
O5           C14   1.277       .  A
O6          Cu10   2.008       .  S
O6           C13   1.279   1_565  A
O7          Cu10   2.018       .  S
O7           C12   1.279       .  A
O8          Cu10   2.011       .  S
O8           C11   1.278       .  A
Cu9         Cu10   2.371   1_545  S
C11         C611   1.477       .  S
C12         C545   1.487   1_565  S
C13         C555   1.481       .  S
C14         C589   1.478       .  S
O15         Cu23   2.005       .  S
O15          C25   1.278       .  A
O16         Cu23   2.012       .  S
O16          C26   1.279       .  A
O17         Cu23   2.003       .  S
O17          C27   1.278   1_565  A
O18         Cu23   2.016       .  S
O18          C28   1.279       .  A
O19         Cu24   2.005       .  S
O19          C28   1.278   1_545  A
O20         Cu24   2.011       .  S
O20          C27   1.278       .  A
O21         Cu24   2.012       .  S
O21          C26   1.278   1_545  A
O22         Cu24   2.016       .  S
O22          C25   1.279   1_545  A
Cu23        Cu24   2.371   1_565  S
C25         C523   1.479       .  S
C26         C489   1.482       .  S
C27         C567   1.481       .  S
C28         C577   1.478       .  S
O29         Cu37   2.011       .  S
O29          C39   1.279       .  A
O30         Cu37   2.005   1_556  S
O30          C40   1.278       .  A
O31         Cu37   2.018       .  S
O31          C41   1.279       .  A
O32         Cu37   2.017       .  S
O32          C42   1.278       .  A
O33         Cu38   2.018       .  S
O33          C42   1.279   1_455  A
O34         Cu38   2.010       .  S
O34          C41   1.278   1_455  A
O35         Cu38   2.009   1_556  S
O35          C40   1.278   1_455  A
O36         Cu38   2.000       .  S
O36          C39   1.277   1_455  A
Cu37        Cu38   2.371   1_655  S
C39         C445   1.479       .  S
C40         C423   1.479       .  S
C41         C413   1.485       .  S
C42         C467   1.481       .  S
O43         Cu51   2.008       .  S
O43          C53   1.277       .  A
O44         Cu51   2.012       .  S
O44          C54   1.279       .  A
O45         Cu51   2.009       .  S
O45          C55   1.279       .  A
O46         Cu51   2.001       .  S
O46          C56   1.277       .  A
O47         Cu52   2.012       .  S
O47          C56   1.279   1_455  A
O48         Cu52   2.005       .  S
O48          C55   1.278   1_455  A
O49         Cu52   2.020       .  S
O49          C54   1.280   1_455  A
O50         Cu52   2.021       .  S
O50          C53   1.279   1_455  A
Cu51        Cu52   2.371   1_655  S
C53         C379   1.476       .  S
C54         C357   1.487       .  S
C55         C435   1.480       .  S
C56         C457   1.480       .  S
O57         Cu65   2.004       .  S
O57          C67   1.278   1_545  A
O58         Cu65   2.004   1_554  S
O58          C68   1.278   1_545  A
O59         Cu65   1.997       .  S
O59          C69   1.277   1_545  A
O60         Cu65   2.001       .  S
O60          C70   1.277   1_545  A
O61         Cu66   2.030       .  S
O61          C70   1.281       .  A
O62         Cu66   2.032       .  S
O62          C69   1.281       .  A
O63         Cu66   2.017   1_554  S
O63          C68   1.279       .  A
O64         Cu66   2.002       .  S
O64          C67   1.277       .  A
Cu65        Cu66   2.370   1_545  S
C67         C291   1.477   1_565  S
C68         C313   1.483       .  S
C69         C335   1.480   1_565  S
C70         C533   1.487       .  S
O71         Cu79   2.005       .  S
O71          C81   1.278   1_565  A
O72         Cu79   2.003       .  S
O72          C82   1.278       .  A
O73         Cu79   2.005       .  S
O73          C83   1.277       .  A
O74         Cu79   1.999       .  S
O74          C84   1.277       .  A
O75         Cu80   2.015       .  S
O75          C84   1.279   1_545  A
O76         Cu80   2.013       .  S
O76          C83   1.279   1_545  A
O77         Cu80   2.013       .  S
O77          C82   1.279   1_545  A
O78         Cu80   2.006       .  S
O78          C81   1.278       .  A
Cu79        Cu80   2.372   1_565  S
C81         C303   1.479       .  S
C82         C325   1.482       .  S
C83         C269   1.473       .  S
C84         C501   1.480       .  S
N85          C90   1.352       .  A
N85          C89   1.352       .  A
N85         H117   1.041   1_556  S
N86          C93   1.353       .  A
N86          C94   1.354       .  A
N87          C92   1.357       .  A
N87          C91   1.354       .  A
N87         H118   1.033   1_556  S
N88          C95   1.351       .  A
N88          C96   1.349       .  A
C89          C97   1.388       .  A
C89         C105   1.416   1_545  A
C90         C106   1.413   1_556  A
C90          C98   1.386       .  A
C91          C99   1.386       .  A
C91         C108   1.418   1_455  A
C92         C107   1.419       .  A
C92         C100   1.387       .  A
C93         C105   1.416       .  A
C93         C101   1.386   1_556  A
C94         C108   1.417       .  A
C94         C102   1.387   1_556  A
C95         C103   1.387       .  A
C95         C106   1.412   1_455  A
C96         C104   1.386       .  A
C96         C107   1.411   1_544  A
C97          C98   1.377       .  A
C97         H109   1.082       .  S
C98         H110   1.082       .  S
C99         C100   1.379       .  A
C99         H111   1.082       .  S
C100        H112   1.082       .  S
C101        C102   1.374       .  A
C101        H113   1.082       .  S
C102        H114   1.082       .  S
C103        C104   1.375       .  A
C103        H115   1.082       .  S
C104        H116   1.082       .  S
C105        C347   1.495   1_565  S
C106        C247   1.489       .  S
C107        C599   1.492       .  S
C108        C479   1.499       .  S
N119        C124   1.352       .  A
N119        C123   1.352       .  A
N119        H151   1.038       .  S
N120        C127   1.351       .  A
N120        C128   1.350       .  A
N121        C126   1.354       .  A
N121        C125   1.355       .  A
N121        H152   1.038       .  S
N122        C129   1.352       .  A
N122        C130   1.352       .  A
C123        C131   1.387       .  A
C123        C139   1.412   1_565  A
C124        C140   1.412       .  A
C124        C132   1.386       .  A
C125        C133   1.387       .  A
C125        C142   1.417   1_455  A
C126        C141   1.416   1_545  A
C126        C134   1.386       .  A
C127        C139   1.412       .  A
C127        C135   1.386       .  A
C128        C142   1.413       .  A
C128        C136   1.387       .  A
C129        C137   1.385       .  A
C129        C140   1.413   1_455  A
C130        C138   1.387       .  A
C130        C141   1.416       .  A
C131        C132   1.375       .  A
C131        H143   1.082       .  S
C132        H144   1.082       .  S
C133        C134   1.377       .  A
C133        H145   1.082       .  S
C134        H146   1.082       .  S
C135        C136   1.375       .  A
C135        H147   1.082       .  S
C136        H148   1.082       .  S
C137        C138   1.374       .  A
C137        H149   1.082       .  S
C138        H150   1.082       .  S
C139        C281   1.487       .  S
C140        C391   1.491       .  S
C141        C511   1.496       .  S
C142        C225   1.491       .  S
O153       Cu161   2.009   1_556  S
O153        C163   1.278   1_455  A
O154       Cu161   2.012       .  S
O154        C164   1.279   1_455  A
O155       Cu161   2.011       .  S
O155        C165   1.278   1_455  A
O156       Cu161   2.013       .  S
O156        C166   1.279   1_455  A
O157       Cu162   2.011       .  S
O157        C166   1.279       .  A
O158       Cu162   2.012       .  S
O158        C165   1.278       .  A
O159       Cu162   2.000       .  S
O159        C164   1.277       .  A
O160       Cu162   2.004   1_556  S
O160        C163   1.279       .  A
Cu161      Cu162   2.371   1_455  S
C163        C193   1.481       .  S
C164        C203   1.480       .  S
C165        C259   1.478       .  S
C166        C401   1.484       .  S
O167       Cu175   2.023       .  S
O167        C177   1.279   1_455  A
O168       Cu175   2.010       .  S
O168        C178   1.279   1_455  A
O169       Cu175   2.022       .  S
O169        C179   1.280   1_455  A
O170       Cu175   2.019       .  S
O170        C180   1.279   1_455  A
O171       Cu176   2.011       .  S
O171        C180   1.278       .  A
O172       Cu176   2.013       .  S
O172        C179   1.279       .  A
O173       Cu176   1.999       .  S
O173        C178   1.277       .  A
O174       Cu176   1.992       .  S
O174        C177   1.277       .  A
Cu175      Cu176   2.370   1_455  S
C177        C181   1.482       .  S
C178        C215   1.479       .  S
C179        C369   1.488       .  S
C180        C237   1.479       .  S
C181        C182   1.401       .  A
C181        C186   1.404   1_655  A
C182        C183   1.390       .  A
C182        H195   1.083       .  S
C183        C184   1.412       .  A
C183        H196   1.076       .  S
C184        C190   1.428       .  A
C184        C185   1.423   1_655  A
C185        C187   1.401       .  A
C185        C186   1.410       .  A
C186        H197   1.084       .  S
C187        C188   1.393       .  A
C187        H198   1.084       .  S
C188        C189   1.401       .  A
C188        H199   1.084       .  S
C189        C190   1.421   1_455  A
C189        C194   1.408       .  A
C190        C191   1.414       .  A
C191        C192   1.392       .  A
C191        H200   1.076       .  S
C192        C193   1.399       .  A
C192        H201   1.083       .  S
C193        C194   1.405   1_655  A
C194        H202   1.084       .  S
C203        C204   1.402       .  A
C203        C208   1.401   1_655  A
C204        C205   1.396       .  A
C204        H217   1.083       .  S
C205        C206   1.415       .  A
C205        H218   1.077       .  S
C206        C212   1.429       .  A
C206        C207   1.422   1_655  A
C207        C209   1.398       .  A
C207        C208   1.403       .  A
C208        H219   1.084       .  S
C209        C210   1.388       .  A
C209        H220   1.084       .  S
C210        C211   1.398       .  A
C210        H221   1.084       .  S
C211        C212   1.422   1_455  A
C211        C216   1.402       .  A
C212        C213   1.415       .  A
C213        C214   1.396       .  A
C213        H222   1.077       .  S
C214        C215   1.402       .  A
C214        H223   1.083       .  S
C215        C216   1.400   1_655  A
C216        H224   1.084       .  S
C225        C226   1.399       .  A
C225        C230   1.401   1_655  A
C226        C227   1.396       .  A
C226        H239   1.084       .  S
C227        C228   1.416       .  A
C227        H240   1.077       .  S
C228        C234   1.431       .  A
C228        C229   1.423   1_655  A
C229        C231   1.400       .  A
C229        C230   1.407       .  A
C230        H241   1.085       .  S
C231        C232   1.391       .  A
C231        H242   1.084       .  S
C232        C233   1.400       .  A
C232        H243   1.084       .  S
C233        C234   1.423   1_455  A
C233        C238   1.408       .  A
C234        C235   1.415       .  A
C235        C236   1.396       .  A
C235        H244   1.077       .  S
C236        C237   1.399       .  A
C236        H245   1.084       .  S
C237        C238   1.402   1_655  A
C238        H246   1.085       .  S
C247        C248   1.400       .  A
C247        C252   1.399   1_654  A
C248        C249   1.398       .  A
C248        H261   1.083       .  S
C249        C250   1.416       .  A
C249        H262   1.078       .  S
C250        C256   1.431       .  A
C250        C251   1.423   1_654  A
C251        C253   1.398       .  A
C251        C252   1.403       .  A
C252        H263   1.085       .  S
C253        C254   1.388       .  A
C253        H264   1.084       .  S
C254        C255   1.399       .  A
C254        H265   1.084       .  S
C255        C256   1.423   1_456  A
C255        C260   1.404   1_556  A
C256        C257   1.416       .  A
C257        C258   1.399       .  A
C257        H266   1.078       .  S
C258        C259   1.400       .  A
C258        H267   1.083       .  S
C259        C260   1.400   1_655  A
C260        H268   1.085   1_554  S
C269        C270   1.399       .  A
C269        C274   1.398   1_565  A
C270        C271   1.398       .  A
C270        H283   1.084       .  S
C271        C272   1.416       .  A
C271        H284   1.077       .  S
C272        C278   1.430       .  A
C272        C273   1.423   1_565  A
C273        C275   1.398       .  A
C273        C274   1.403       .  A
C274        H285   1.085       .  S
C275        C276   1.388       .  A
C275        H286   1.084       .  S
C276        C277   1.398       .  A
C276        H287   1.084       .  S
C277        C278   1.423   1_545  A
C277        C282   1.402       .  A
C278        C279   1.416       .  A
C279        C280   1.398       .  A
C279        H288   1.077       .  S
C280        C281   1.400   1_565  A
C280        H289   1.083       .  S
C281        C282   1.398       .  A
C282        H290   1.085       .  S
C291        C292   1.400       .  A
C291        C296   1.401   1_545  A
C292        C293   1.395       .  A
C292        H305   1.083       .  S
C293        C294   1.414       .  A
C293        H306   1.077       .  S
C294        C300   1.428       .  A
C294        C295   1.422   1_545  A
C295        C297   1.399       .  A
C295        C296   1.403       .  A
C296        H307   1.084       .  S
C297        C298   1.389       .  A
C297        H308   1.084       .  S
C298        C299   1.399       .  A
C298        H309   1.084       .  S
C299        C300   1.422   1_565  A
C299        C304   1.403       .  A
C300        C301   1.415       .  A
C301        C302   1.396       .  A
C301        H310   1.077       .  S
C302        C303   1.401       .  A
C302        H311   1.083       .  S
C303        C304   1.402   1_545  A
C304        H312   1.084       .  S
C313        C314   1.401       .  A
C313        C318   1.403   1_565  A
C314        C315   1.398       .  A
C314        H327   1.083       .  S
C315        C316   1.416       .  A
C315        H328   1.077       .  S
C316        C322   1.431       .  A
C316        C317   1.422   1_565  A
C317        C319   1.399       .  A
C317        C318   1.404       .  A
C318        H329   1.084       .  S
C319        C320   1.389       .  A
C319        H330   1.084       .  S
C320        C321   1.399       .  A
C320        H331   1.084       .  S
C321        C322   1.423   1_545  A
C321        C326   1.405       .  A
C322        C323   1.414       .  A
C323        C324   1.396       .  A
C323        H332   1.077       .  S
C324        C325   1.402       .  A
C324        H333   1.083       .  S
C325        C326   1.402   1_565  A
C326        H334   1.084       .  S
C335        C336   1.399       .  A
C335        C340   1.403   1_545  A
C336        C337   1.394       .  A
C336        H349   1.084   1_556  S
C337        C338   1.414       .  A
C337        H350   1.077   1_556  S
C338        C344   1.430       .  A
C338        C339   1.423   1_545  A
C339        C341   1.401       .  A
C339        C340   1.410       .  A
C340        H351   1.084       .  S
C341        C342   1.393       .  A
C341        H352   1.084       .  S
C342        C343   1.401       .  A
C342        H353   1.084       .  S
C343        C344   1.422   1_565  A
C343        C348   1.409       .  A
C344        C345   1.414       .  A
C345        C346   1.393       .  A
C345        H354   1.077   1_556  S
C346        C347   1.400       .  A
C346        H355   1.083   1_556  S
C347        C348   1.404   1_545  A
C348        H356   1.084       .  S
C357        C358   1.402       .  A
C357        C362   1.404   1_655  A
C358        C359   1.398       .  A
C358        H371   1.083       .  S
C359        C360   1.415       .  A
C359        H372   1.077       .  S
C360        C366   1.433       .  A
C360        C361   1.423   1_655  A
C361        C363   1.400       .  A
C361        C362   1.408       .  A
C362        H373   1.084       .  S
C363        C364   1.391       .  A
C363        H374   1.084       .  S
C364        C365   1.400       .  A
C364        H375   1.084       .  S
C365        C366   1.422   1_455  A
C365        C370   1.408       .  A
C366        C367   1.415       .  A
C367        C368   1.398       .  A
C367        H376   1.077       .  S
C368        C369   1.402       .  A
C368        H377   1.083       .  S
C369        C370   1.404   1_655  A
C370        H378   1.084       .  S
C379        C380   1.399       .  A
C379        C384   1.399   1_655  A
C380        C381   1.398       .  A
C380        H393   1.084       .  S
C381        C382   1.416       .  A
C381        H394   1.077       .  S
C382        C388   1.431       .  A
C382        C383   1.423   1_655  A
C383        C385   1.399       .  A
C383        C384   1.406       .  A
C384        H395   1.085       .  S
C385        C386   1.390       .  A
C385        H396   1.084       .  S
C386        C387   1.399       .  A
C386        H397   1.084       .  S
C387        C388   1.423   1_455  A
C387        C392   1.406       .  A
C388        C389   1.415       .  A
C389        C390   1.396       .  A
C389        H398   1.077       .  S
C390        C391   1.400       .  A
C390        H399   1.084       .  S
C391        C392   1.400   1_655  A
C392        H400   1.085       .  S
C401        C402   1.402   1_655  A
C401        C406   1.403       .  A
C402        C403   1.398       .  A
C402        H415   1.083       .  S
C403        C404   1.415   1_455  A
C403        H416   1.077       .  S
C404        C410   1.432       .  A
C404        C405   1.422       .  A
C405        C407   1.399       .  A
C405        C406   1.405       .  A
C406        H417   1.084       .  S
C407        C408   1.390       .  A
C407        H418   1.084       .  S
C408        C409   1.399       .  A
C408        H419   1.084       .  S
C409        C410   1.423       .  A
C409        C414   1.406       .  A
C410        C411   1.415   1_655  A
C411        C412   1.397       .  A
C411        H420   1.077       .  S
C412        C413   1.402   1_455  A
C412        H421   1.083   1_554  S
C413        C414   1.403       .  A
C414        H422   1.084       .  S
C423        C424   1.400       .  A
C423        C428   1.402   1_655  A
C424        C425   1.394       .  A
C424        H437   1.083       .  S
C425        C426   1.414       .  A
C425        H438   1.077       .  S
C426        C432   1.429       .  A
C426        C427   1.423   1_655  A
C427        C429   1.400       .  A
C427        C428   1.406       .  A
C428        H439   1.084       .  S
C429        C430   1.390       .  A
C429        H440   1.084       .  S
C430        C431   1.400       .  A
C430        H441   1.084       .  S
C431        C432   1.422   1_455  A
C431        C436   1.405       .  A
C432        C433   1.415       .  A
C433        C434   1.395       .  A
C433        H442   1.077       .  S
C434        C435   1.400       .  A
C434        H443   1.083       .  S
C435        C436   1.403   1_655  A
C436        H444   1.084       .  S
C445        C446   1.401   1_655  A
C445        C450   1.402       .  A
C446        C447   1.394       .  A
C446        H459   1.083       .  S
C447        C448   1.414   1_455  A
C447        H460   1.077       .  S
C448        C454   1.429       .  A
C448        C449   1.423       .  A
C449        C451   1.399       .  A
C449        C450   1.405       .  A
C450        H461   1.084       .  S
C451        C452   1.389       .  A
C451        H462   1.084       .  S
C452        C453   1.400       .  A
C452        H463   1.084       .  S
C453        C454   1.421       .  A
C453        C458   1.404       .  A
C454        C455   1.415   1_655  A
C455        C456   1.396       .  A
C455        H464   1.077       .  S
C456        C457   1.400   1_455  A
C456        H465   1.083       .  S
C457        C458   1.402       .  A
C458        H466   1.084       .  S
C467        C468   1.400   1_655  A
C467        C472   1.402   1_554  A
C468        C469   1.398       .  A
C468        H481   1.083       .  S
C469        C470   1.415   1_455  A
C469        H482   1.078       .  S
C470        C476   1.432       .  A
C470        C471   1.423   1_554  A
C471        C473   1.400       .  A
C471        C472   1.408       .  A
C472        H483   1.085       .  S
C473        C474   1.392       .  A
C473        H484   1.084       .  S
C474        C475   1.400       .  A
C474        H485   1.084       .  S
C475        C476   1.422   1_556  A
C475        C480   1.408       .  A
C476        C477   1.414   1_655  A
C477        C478   1.398       .  A
C477        H486   1.078       .  S
C478        C479   1.402   1_454  A
C478        H487   1.083       .  S
C479        C480   1.404       .  A
C480        H488   1.084       .  S
C489        C490   1.401       .  A
C489        C494   1.403   1_565  A
C490        C491   1.396       .  A
C490        H503   1.083       .  S
C491        C492   1.415       .  A
C491        H504   1.077       .  S
C492        C498   1.430       .  A
C492        C493   1.422   1_565  A
C493        C495   1.400       .  A
C493        C494   1.406       .  A
C494        H505   1.084       .  S
C495        C496   1.390       .  A
C495        H506   1.084       .  S
C496        C497   1.399       .  A
C496        H507   1.084       .  S
C497        C498   1.423   1_545  A
C497        C502   1.406       .  A
C498        C499   1.414       .  A
C499        C500   1.394       .  A
C499        H508   1.077       .  S
C500        C501   1.401       .  A
C500        H509   1.083       .  S
C501        C502   1.402   1_565  A
C502        H510   1.084       .  S
C511        C512   1.402       .  A
C511        C516   1.403   1_565  A
C512        C513   1.397       .  A
C512        H525   1.083       .  S
C513        C514   1.415       .  A
C513        H526   1.078       .  S
C514        C520   1.430       .  A
C514        C515   1.421   1_565  A
C515        C517   1.400       .  A
C515        C516   1.405       .  A
C516        H527   1.084       .  S
C517        C518   1.391       .  A
C517        H528   1.084       .  S
C518        C519   1.400       .  A
C518        H529   1.084       .  S
C519        C520   1.422   1_545  A
C519        C524   1.406       .  A
C520        C521   1.414       .  A
C521        C522   1.396       .  A
C521        H530   1.078       .  S
C522        C523   1.401       .  A
C522        H531   1.083       .  S
C523        C524   1.402   1_565  A
C524        H532   1.084       .  S
C533        C534   1.403   1_565  A
C533        C538   1.404       .  A
C534        C535   1.395       .  A
C534        H547   1.083       .  S
C535        C536   1.413       .  A
C535        H548   1.077       .  S
C536        C542   1.433       .  A
C536        C537   1.423   1_545  A
C537        C539   1.400       .  A
C537        C538   1.410       .  A
C538        H549   1.084       .  S
C539        C540   1.392       .  A
C539        H550   1.084       .  S
C540        C541   1.400       .  A
C540        H551   1.084       .  S
C541        C542   1.422   1_565  A
C541        C546   1.408       .  A
C542        C543   1.416       .  A
C543        C544   1.398       .  A
C543        H552   1.077   1_556  S
C544        C545   1.402       .  A
C544        H553   1.083   1_556  S
C545        C546   1.404   1_545  A
C546        H554   1.084       .  S
C555        C556   1.402       .  A
C555        C560   1.401   1_545  A
C556        C557   1.398       .  A
C556        H569   1.083       .  S
C557        C558   1.415       .  A
C557        H570   1.077       .  S
C558        C564   1.430       .  A
C558        C559   1.422   1_545  A
C559        C561   1.398       .  A
C559        C560   1.402       .  A
C560        H571   1.084       .  S
C561        C562   1.387       .  A
C561        H572   1.084       .  S
C562        C563   1.398       .  A
C562        H573   1.084       .  S
C563        C564   1.422   1_565  A
C563        C568   1.402       .  A
C564        C565   1.416       .  A
C565        C566   1.398       .  A
C565        H574   1.077       .  S
C566        C567   1.402       .  A
C566        H575   1.083       .  S
C567        C568   1.401   1_545  A
C568        H576   1.084       .  S
C577        C578   1.400       .  A
C577        C582   1.400   1_565  A
C578        C579   1.399       .  A
C578        H591   1.083       .  S
C579        C580   1.416       .  A
C579        H592   1.077       .  S
C580        C586   1.432       .  A
C580        C581   1.423   1_565  A
C581        C583   1.399       .  A
C581        C582   1.403       .  A
C582        H593   1.085       .  S
C583        C584   1.388       .  A
C583        H594   1.084       .  S
C584        C585   1.399       .  A
C584        H595   1.084       .  S
C585        C586   1.423   1_545  A
C585        C590   1.404       .  A
C586        C587   1.416       .  A
C587        C588   1.398       .  A
C587        H596   1.077       .  S
C588        C589   1.400       .  A
C588        H597   1.083       .  S
C589        C590   1.400   1_565  A
C590        H598   1.085       .  S
C599        C600   1.401   1_565  A
C599        C604   1.400   1_556  A
C600        C601   1.398       .  A
C600        H613   1.084       .  S
C601        C602   1.415   1_545  A
C601        H614   1.077       .  S
C602        C608   1.433       .  A
C602        C603   1.424   1_556  A
C603        C605   1.399       .  A
C603        C604   1.407       .  A
C604        H615   1.085       .  S
C605        C606   1.390       .  A
C605        H616   1.084       .  S
C606        C607   1.399       .  A
C606        H617   1.084       .  S
C607        C608   1.423   1_554  A
C607        C612   1.406       .  A
C608        C609   1.417   1_565  A
C609        C610   1.400       .  A
C609        H618   1.077       .  S
C610        C611   1.399   1_545  A
C610        H619   1.083       .  S
C611        C612   1.399   1_556  A
C612        H620   1.085       .  S
