geometry optimzed in LAMMPS
_audit_creation_date              2020-11-30 
_audit_creation_method            'lammps2cif' 
_symmetry_space_group_name_H-M    'P1' 
_symmetry_Int_Tables_number       1 
_symmetry_cell_setting            triclinic 
loop_ 
_symmetry_equiv_pos_as_xyz 
  x,y,z 
_cell_length_a                    47.46278061 
_cell_length_b                    47.563818909925516 
_cell_length_c                    79.72893177505168 
_cell_angle_alpha                 90.01639918222257 
_cell_angle_beta                  89.86405117711769 
_cell_angle_gamma                 120.8628243041237 
loop_ 
_atom_site_label 
_atom_site_type_symbol 
_atom_site_fract_x 
_atom_site_fract_y 
_atom_site_fract_z 
_atom_site_charge 
C1          C  0.70861939  0.66210811  0.94588895    -0.01700
C2          C  0.92778160  0.65491778  0.94258932    -0.01700
C3          C  0.33971980  0.05897384  0.94491018    -0.01700
C4          C  0.34253311  0.28497300  0.93939598    -0.01700
C5          C  0.71567584  0.07329400  0.94074970    -0.01700
C6          C  0.94031799  0.30071343  0.93921573    -0.01700
C7          C  0.53995046  0.09600601  0.86796608    -0.01700
C8          C  0.55700671  0.45306906  0.86969427    -0.01700
C9          C  0.66159317  0.32951356  0.81415985    -0.01700
C10         C  0.89948859  0.46012476  0.86516555    -0.01700
C11         C  0.73434369  0.66522358  0.55797570    -0.01700
C12         C  0.95691792  0.66217480  0.55831247    -0.01700
C13         C  0.36580265  0.06735314  0.56079737    -0.01700
C14         C  0.36863800  0.29369755  0.55019599    -0.01700
C15         C  0.74491031  0.06167939  0.55901728    -0.01700
C16         C  0.96596486  0.29693075  0.55518706    -0.01700
C17         C  0.91084765  0.45159419  0.62809896    -0.01700
C18         C  0.57030254  0.45118101  0.62623844    -0.01700
C19         C  0.67522937  0.32695804  0.68111763    -0.01700
C20         C  0.57032701  0.09449731  0.62733103    -0.01700
C21         C  0.04223317  0.03843877  0.69112196     0.87300
C22         C  0.06062501  0.07032622  0.68088895    -0.53000
C23         C  0.05598132  0.06576506  0.66407461     0.10200
C24         C  0.03592411  0.02977970  0.65864456     0.21200
C25         C  0.00683941  0.02164148  0.68475627    -0.53700
C26         C  0.00287031  0.01576522  0.66787031     0.10300
C27         C  0.05672455  0.01831448  0.68389053    -0.53200
C28         C  0.05328249  0.01371953  0.66691045     0.10900
H29         H  0.07563956  0.09462931  0.68624883     0.15400
H30         H  0.03480976  0.02663755  0.64491989     0.01100
H31         H  0.98641849  0.01533149  0.69322000     0.15700
H32         H  0.07028270  0.01010929  0.69123062     0.15500
C33         C  0.99622198  0.01533049  0.81557081     0.87300
C34         C  0.95932789  0.99098573  0.81907115    -0.53000
C35         C  0.95223237  0.97988646  0.83525958     0.10200
C36         C  0.98292013  0.99263495  0.84633226     0.21200
C37         C  0.00693222  0.04170696  0.82930731    -0.53700
C38         C  0.99941820  0.03012259  0.84548738     0.10300
C39         C  0.01184211  0.99523058  0.82056800    -0.53200
C40         C  0.00593658  0.98425422  0.83660962     0.10900
H41         H  0.93997144  0.98155725  0.80974082     0.15400
H42         H  0.97673363  0.98249599  0.85912395     0.01100
H43         H  0.01953049  0.06755199  0.82631030     0.15700
H44         H  0.02723880  0.99075752  0.81226251     0.15500
C45         C  0.14296643  0.88118635  0.61162161    -0.01700
C46         C  0.77146268  0.87904423  0.61773471    -0.01700
C47         C  0.15892400  0.27676748  0.60337100    -0.01700
C48         C  0.11855789  0.87584705  0.89563060    -0.01700
C49         C  0.72960345  0.87350714  0.89619899    -0.01700
C50         C  0.11438061  0.24438653  0.89614555    -0.01700
C51         C  0.49848280  0.47613626  0.74683569    -0.01700
C52         C  0.50990313  0.99398637  0.74805063    -0.01700
In53       In  0.59903143  0.78026317  0.75055308     1.36900
C54         C  0.56958932  0.71603842  0.74898192     0.78400
O55         O  0.59589233  0.78322128  0.72289601    -0.60100
O56         O  0.64216113  0.79610829  0.73343950    -0.51000
C57         C  0.57913684  0.82231891  0.75137102     0.71000
O58         O  0.55908367  0.79179397  0.75059068    -0.45800
C59         C  0.62181212  0.79146905  0.78140567     0.75700
O60         O  0.55398982  0.73089881  0.74753683    -0.57700
O61         O  0.64052339  0.80155316  0.76871430    -0.47800
O62         O  0.59979478  0.73449557  0.75180869    -0.54100
C63         C  0.62569405  0.79285293  0.72037721     0.85900
O64         O  0.60905900  0.83095157  0.75178330    -0.56000
O65         O  0.59155568  0.77479085  0.77810975    -0.59300
C66         C  0.01584986  0.49496051  0.74710690    -0.01700
In67       In  0.19892145  0.80450707  0.75456321     1.36900
C68         C  0.26183122  0.84845935  0.75333842     0.78400
O69         O  0.19910911  0.79605166  0.72711835    -0.60100
O70         O  0.17496330  0.82048285  0.73610156    -0.51000
C71         C  0.16578946  0.74058841  0.75804646     0.71000
O72         O  0.19678986  0.75686442  0.75767999    -0.45800
C73         C  0.18523168  0.82112676  0.78343436     0.75700
O74         O  0.25138626  0.81812336  0.75405941    -0.57700
O75         O  0.17255883  0.82291135  0.76986547    -0.47800
O76         O  0.23999464  0.85602062  0.75307829    -0.54100
C77         C  0.18342564  0.81008574  0.72364891     0.85900
O78         O  0.15215584  0.75732190  0.75707530    -0.56000
O79         O  0.20471224  0.81061724  0.78206701    -0.59300
In80       In  0.20285831  0.37642869  0.75141150     1.36900
C81         C  0.26389407  0.39863061  0.76021823     0.78400
O82         O  0.19576923  0.37023096  0.77862158    -0.60100
O83         O  0.17576526  0.32684691  0.76362343    -0.51000
C84         C  0.15935647  0.39449609  0.75094583     0.71000
O85         O  0.18948328  0.41459258  0.75371917    -0.45800
C86         C  0.21016553  0.37235962  0.71904142     0.75700
O87         O  0.25083035  0.41599808  0.76178430    -0.57700
O88         O  0.19684858  0.34735383  0.72847016    -0.47800
O89         O  0.24574338  0.37107380  0.75349695    -0.54100
C90         C  0.18097314  0.33939038  0.77815826     0.85900
O91         O  0.15200257  0.36540056  0.74805690    -0.56000
O92         O  0.21942809  0.39937385  0.72624007    -0.59300
C93         C  0.65331681  0.94612871  0.05376742    -0.01700
C94         C  0.63051548  0.71132259  0.05598258    -0.01700
C95         C  0.27566027  0.33755482  0.05606769    -0.01700
C96         C  0.06059700  0.35486385  0.05598061    -0.01700
C97         C  0.04100632  0.70686224  0.05885492    -0.01700
C98         C  0.27041991  0.92880356  0.05709854    -0.01700
C99         C  0.44743628  0.90490263  0.12682206    -0.01700
C100        C  0.09917547  0.55673572  0.13139093    -0.01700
C101        C  0.43982797  0.53846515  0.13264985    -0.01700
C102        C  0.33841261  0.67091648  0.17899349    -0.01700
C103        C  0.67619276  0.94840618  0.44004741    -0.01700
C104        C  0.67389654  0.72335296  0.44155367    -0.01700
C105        C  0.06582273  0.35362582  0.43459077    -0.01700
C106        C  0.28786032  0.34793600  0.43939806    -0.01700
C107        C  0.07728687  0.73519606  0.44238109    -0.01700
C108        C  0.31127031  0.95235416  0.44501707    -0.01700
C109        C  0.11764343  0.57144151  0.37036241    -0.01700
C110        C  0.46390570  0.89902155  0.37091046    -0.01700
C111        C  0.46201104  0.55963634  0.37017688    -0.01700
C112        C  0.34598525  0.66999047  0.31177830    -0.01700
C113        C  0.03589238  0.01974360  0.30103902     0.87300
C114        C  0.06978932  0.03473606  0.30874581    -0.53000
C115        C  0.07049848  0.04000583  0.32542221     0.10200
C116        C  0.03693195  0.03033367  0.33322299     0.21200
C117        C  0.01386755  0.98850168  0.31177373    -0.53700
C118        C  0.01427269  0.99402037  0.32884075     0.10300
C119        C  0.02283242  0.04234382  0.30610139    -0.53200
C120        C  0.02314687  0.04771023  0.32293906     0.10900
H121        H  0.09155833  0.03976549  0.30163453     0.15400
H122        H  0.03794278  0.03644595  0.34659640     0.01100
H123        H  0.99907270  0.96522112  0.30654379     0.15700
H124        H  0.01186434  0.05120799  0.29725131     0.15500
C125        C  0.00415510  0.00014482  0.17529312     0.87300
C126        C  0.98064742  0.96643219  0.16758763    -0.53000
C127        C  0.96958269  0.96669228  0.15168821     0.10200
C128        C  0.98394958  0.00195939  0.14498163     0.21200
C129        C  0.03184018  0.01691938  0.16214074    -0.53700
C130        C  0.02116531  0.01661854  0.14612915     0.10300
C131        C  0.98724527  0.02014199  0.17379759    -0.53200
C132        C  0.97668838  0.02095712  0.15818804     0.10900
H133        H  0.97594125  0.94421444  0.17391112     0.15400
H134        H  0.97488084  0.00395528  0.13259756     0.01100
H135        H  0.05800534  0.02851100  0.16471106     0.15700
H136        H  0.98585077  0.03451954  0.18400386     0.15500
C137        C  0.87003989  0.13595890  0.10548456    -0.01700
C138        C  0.88764282  0.13316852  0.37979193    -0.01700
C139        C  0.27703780  0.13511425  0.39673644    -0.01700
C140        C  0.24110383  0.11690284  0.10138385    -0.01700
C141        C  0.84984243  0.74012025  0.09669577    -0.01700
C142        C  0.89989114  0.77775272  0.39022595    -0.01700
C143        C  0.51612131  0.50103827  0.25055672    -0.01700
C144        C  0.00192912  0.50449599  0.25426799    -0.01700
C145        C  0.49033040  0.00004547  0.24941765    -0.01700
In146      In  0.79660876  0.19698998  0.24186487     1.36900
C147        C  0.81418512  0.17269722  0.26650264     0.78400
O148        O  0.84815872  0.23852450  0.24109861    -0.60100
O149        O  0.81010529  0.24814421  0.24716539    -0.51000
C150        C  0.79378297  0.18637853  0.20957411     0.71000
O151        O  0.80135114  0.17134752  0.21997345    -0.45800
C152        C  0.73325249  0.16651787  0.24618002     0.75700
O153        O  0.82338367  0.17294364  0.25161586    -0.57700
O154        O  0.75144565  0.19617599  0.25029170    -0.47800
O155        O  0.79601085  0.18454976  0.26849995    -0.54100
C156        C  0.84036087  0.25931080  0.24502062     0.85900
O157        O  0.78904091  0.20803957  0.21570284    -0.56000
O158        O  0.74765133  0.15261405  0.24029385    -0.59300
In159      In  0.37833621  0.19071238  0.24445900     1.36900
C160        C  0.41965130  0.25436452  0.24416316     0.78400
O161        O  0.37338242  0.19753873  0.21712674    -0.60100
O162        O  0.33002591  0.17297553  0.23201209    -0.51000
C163        C  0.39178765  0.14323940  0.24206583     0.71000
O164        O  0.41350838  0.17261750  0.24492319    -0.45800
C165        C  0.35822911  0.18182372  0.27584600     0.75700
O166        O  0.42636940  0.23489441  0.23694486    -0.57700
O167        O  0.34006737  0.18039248  0.26393763    -0.47800
O168        O  0.39205737  0.24122919  0.25128195    -0.54100
C169        C  0.34247613  0.18240042  0.21762429     0.85900
O170        O  0.36341751  0.13840420  0.23977826    -0.56000
O171        O  0.38636543  0.18771649  0.27169631    -0.59300
In172      In  0.82873569  0.64158187  0.24934294     1.36900
C173        C  0.76471782  0.60709322  0.25533343     0.78400
O174        O  0.83152918  0.65513007  0.27593597    -0.60100
O175        O  0.86132167  0.69285807  0.25837445    -0.51000
C176        C  0.86965448  0.61901192  0.25168523     0.71000
O177        O  0.83982641  0.60242331  0.25585716    -0.45800
C178        C  0.82720785  0.65965004  0.21820049     0.75700
O179        O  0.78035350  0.59390976  0.25010432    -0.57700
O180        O  0.83261378  0.67807120  0.23058734    -0.47800
O181        O  0.78202059  0.63744059  0.25783518    -0.54100
C182        C  0.85152128  0.68514976  0.27328980     0.85900
O183        O  0.87831915  0.64724267  0.24641957    -0.56000
O184        O  0.82219478  0.63167762  0.22182248    -0.59300
C185        C  0.64932385  0.12384983  0.26604572    -0.04700
C186        C  0.62988543  0.10660994  0.25210320     0.09500
C187        C  0.64386782  0.11214510  0.23594389    -0.02100
C188        C  0.67777910  0.13315168  0.23390549    -0.00300
C189        C  0.69754906  0.14881212  0.24801201    -0.03900
C190        C  0.68327083  0.14517059  0.26397908     0.03100
C191        C  0.59467925  0.08164044  0.25432476     0.09900
C192        C  0.62336539  0.09594819  0.22146569     0.35800
C193        C  0.70366982  0.16216197  0.27834882     0.39200
C194        C  0.57082294  0.08917756  0.25028881    -0.04300
C195        C  0.53732598  0.06478763  0.25098594     0.02900
C196        C  0.52706377  0.03036676  0.25247817    -0.03900
C197        C  0.55239623  0.02461574  0.25875267    -0.00100
C198        C  0.58546125  0.05025939  0.25988034    -0.02700
C199        C  0.58110829  0.12295156  0.24610433     0.36600
C200        C  0.54684249  0.99229983  0.26264762     0.40200
C201        C  0.51602607  0.07806340  0.25264942     0.39300
C202        C  0.61081559  0.04389032  0.26556531     0.36200
C203        C  0.63444294  0.11901633  0.28250411     0.36900
C204        C  0.69227925  0.13897105  0.21727252     0.40200
N205        N  0.50150745  0.09137023  0.25426508    -0.37900
N206        N  0.58937012  0.14980122  0.24281593    -0.39500
N207        N  0.54515202  0.96772775  0.26582864    -0.37200
N208        N  0.63102106  0.03892064  0.27007947    -0.39600
N209        N  0.60698773  0.08327122  0.20990552    -0.39400
N210        N  0.70369808  0.14371874  0.20398283    -0.37000
N211        N  0.72005622  0.17580878  0.28976286    -0.38100
N212        N  0.62256949  0.11509376  0.29564224    -0.39700
C213        C  0.39442430  0.06732491  0.22960222    -0.04700
C214        C  0.41360873  0.06577203  0.24269632     0.09500
C215        C  0.42308887  0.08813190  0.25620965    -0.02100
C216        C  0.41621185  0.11358172  0.25582807    -0.00300
C217        C  0.39877444  0.11629793  0.24224001    -0.03900
C218        C  0.38714085  0.09261983  0.22933064     0.03100
C219        C  0.42635163  0.04267997  0.24177680     0.09900
C220        C  0.43943703  0.08484235  0.27077022     0.35800
C221        C  0.36902246  0.09515706  0.21536596     0.39200
C222        C  0.45031860  0.04767998  0.22985615    -0.04300
C223        C  0.46832364  0.03158386  0.23145887     0.02900
C224        C  0.46468577  0.01203668  0.24612604    -0.03900
C225        C  0.43564530  0.00271242  0.25616720    -0.00100
C226        C  0.41710033  0.01809192  0.25384697    -0.02700
C227        C  0.45938331  0.07262487  0.21700289     0.36600
C228        C  0.42241984  0.97656701  0.26851539     0.40200
C229        C  0.49417941  0.04037486  0.21913419     0.39300
C230        C  0.38826285  0.00898195  0.26411489     0.36200
C231        C  0.38223670  0.04287836  0.21642135     0.36900
C232        C  0.42663635  0.13667180  0.26966397     0.40200
N233        N  0.51474825  0.04900927  0.20915260    -0.37900
N234        N  0.46677798  0.09265477  0.20687036    -0.39500
N235        N  0.41078797  0.95583715  0.27842873    -0.37200
N236        N  0.36532407  0.00173655  0.27227616    -0.39600
N237        N  0.45179845  0.08220782  0.28267120    -0.39400
N238        N  0.43503735  0.15510334  0.28066643    -0.37000
N239        N  0.35470367  0.09732153  0.20420105    -0.38100
N240        N  0.37258928  0.02340315  0.20588774    -0.39700
C241        C  0.97447697  0.56746386  0.26587018    -0.04700
C242        C  0.95265222  0.56211081  0.25274683     0.09500
C243        C  0.94183193  0.53443431  0.24257059    -0.02100
C244        C  0.95129357  0.51154000  0.24628981    -0.00300
C245        C  0.97899089  0.52017800  0.25673046    -0.03900
C246        C  0.98472388  0.54481893  0.26887933     0.03100
C247        C  0.93316621  0.57872079  0.25311243     0.09900
C248        C  0.91734304  0.52708454  0.22971998     0.35800
C249        C  0.99017015  0.54085647  0.28631769     0.39200
C250        C  0.94016862  0.60442595  0.24199222    -0.04300
C251        C  0.92023474  0.61849709  0.24187919     0.02900
C252        C  0.89246133  0.60618040  0.25266767    -0.03900
C253        C  0.88615654  0.58082599  0.26414062    -0.00100
C254        C  0.90638367  0.56719970  0.26431171    -0.02700
C255        C  0.96752737  0.61581189  0.23042288     0.36600
C256        C  0.85932025  0.56896481  0.27611370     0.40200
C257        C  0.92826208  0.64520560  0.23036214     0.39300
C258        C  0.89934484  0.54077493  0.27589416     0.36200
C259        C  0.98403362  0.59477044  0.27723720     0.36900
C260        C  0.92445334  0.47791752  0.24569405     0.40200
N261        N  0.93492173  0.66669705  0.22125641    -0.37900
N262        N  0.98926339  0.62469904  0.22114660    -0.39500
N263        N  0.83796701  0.55941346  0.28568424    -0.37200
N264        N  0.89390430  0.51978511  0.28512052    -0.39600
N265        N  0.89790813  0.52129063  0.21945548    -0.39400
N266        N  0.90171838  0.45170043  0.24546312    -0.37000
N267        N  0.99258907  0.53737031  0.30048473    -0.38100
N268        N  0.99163817  0.61656144  0.28626060    -0.39700
C269        C  0.96275289  0.41171416  0.24146169    -0.04700
C270        C  0.93555825  0.39662332  0.25210652     0.09500
C271        C  0.93223231  0.41433657  0.26514948    -0.02100
C272        C  0.95394963  0.44845208  0.26637329    -0.00300
C273        C  0.97974267  0.46571549  0.25421610    -0.03900
C274        C  0.98590783  0.44533273  0.24315919     0.03100
C275        C  0.91122282  0.36124286  0.25019008     0.09900
C276        C  0.90598886  0.39708477  0.27735362     0.35800
C277        C  0.01685425  0.45656915  0.23454910     0.39200
C278        C  0.91613192  0.33798282  0.25850851    -0.04300
C279        C  0.89304556  0.30444206  0.25672267     0.02900
C280        C  0.86482370  0.29428385  0.24679559    -0.03900
C281        C  0.85997737  0.31764635  0.23849226    -0.00100
C282        C  0.88339496  0.35110849  0.24003240    -0.02700
C283        C  0.94492571  0.34870255  0.26892121     0.36600
C284        C  0.83137650  0.30724705  0.22795774     0.40200
C285        C  0.89784468  0.28060052  0.26559483     0.39300
C286        C  0.87909213  0.37496215  0.23086817     0.36200
C287        C  0.96744056  0.39201282  0.22905690     0.36900
C288        C  0.94795640  0.46441656  0.28020923     0.40200
N289        N  0.90187313  0.26181170  0.27276974    -0.37900
N290        N  0.96789218  0.35731069  0.27722198    -0.39500
N291        N  0.80852911  0.29890888  0.21959914    -0.37200
N292        N  0.87516730  0.39340131  0.22328131    -0.39600
N293        N  0.88524934  0.38327057  0.28711307    -0.39400
N294        N  0.93996014  0.47381139  0.29157987    -0.37000
N295        N  0.04073119  0.46322521  0.22737653    -0.38100
N296        N  0.97118269  0.37625573  0.21925789    -0.39700
C297        C  0.46326325  0.34191501  0.22943371    -0.04700
C298        C  0.46828176  0.35810411  0.24493486     0.09500
C299        C  0.46315801  0.34077604  0.26008401    -0.02100
C300        C  0.45007398  0.30677724  0.25970598    -0.00300
C301        C  0.44162447  0.29009298  0.24425585    -0.03900
C302        C  0.45025903  0.30785214  0.22909866     0.03100
C303        C  0.48081065  0.39390536  0.24531661     0.09900
C304        C  0.47139196  0.35781876  0.27603587     0.35800
C305        C  0.44557393  0.29110788  0.21324397     0.39200
C306        C  0.45943007  0.40561116  0.24318548    -0.04300
C307        C  0.47104212  0.43951198  0.24438044     0.02900
C308        C  0.50494493  0.46303988  0.24852712    -0.03900
C309        C  0.52660529  0.44977723  0.24887920    -0.00100
C310        C  0.51417626  0.41575940  0.24762408    -0.02700
C311        C  0.42462661  0.38209839  0.24092720     0.36600
C312        C  0.56206011  0.46883770  0.24872747     0.40200
C313        C  0.44603706  0.44836883  0.24321000     0.39300
C314        C  0.53609356  0.40270010  0.24806356     0.36200
C315        C  0.47128828  0.36038113  0.21391114     0.36900
C316        C  0.44677635  0.28907712  0.27510737     0.40200
N317        N  0.42428021  0.45279783  0.24228729    -0.37900
N318        N  0.39691567  0.36332149  0.23932883    -0.39500
N319        N  0.59031512  0.48104946  0.24818454    -0.37200
N320        N  0.55342624  0.39229945  0.24826558    -0.39600
N321        N  0.47811976  0.37106130  0.28886185    -0.39400
N322        N  0.44484040  0.27512432  0.28735311    -0.37000
N323        N  0.44237244  0.27781454  0.20061086    -0.38100
N324        N  0.47777590  0.37529886  0.20158308    -0.39700
C325        C  0.68154421  0.58797067  0.27073144    -0.04700
C326        C  0.66089023  0.56778449  0.25773340     0.09500
C327        C  0.67427705  0.55759991  0.24480602    -0.02100
C328        C  0.70814953  0.56898830  0.24444883    -0.00300
C329        C  0.72863058  0.58940229  0.25738395    -0.03900
C330        C  0.71471106  0.59674869  0.27110779     0.03100
C331        C  0.62499396  0.55662779  0.25771862     0.09900
C332        C  0.65368685  0.53653531  0.23138235     0.35800
C333        C  0.73380257  0.61096878  0.28618822     0.39200
C334        C  0.61170793  0.56573478  0.24460815    -0.04300
C335        C  0.57731851  0.55027053  0.24249760     0.02900
C336        C  0.55490865  0.52400583  0.25354718    -0.03900
C337        C  0.56957725  0.52047110  0.26870191    -0.00100
C338        C  0.60406120  0.53580013  0.27035770    -0.02700
C339        C  0.63400894  0.59147794  0.23315006     0.36600
C340        C  0.55046156  0.49738719  0.28188530     0.40200
C341        C  0.56697875  0.56393753  0.22928218     0.39300
C342        C  0.61789126  0.52708953  0.28429672     0.36200
C343        C  0.66910768  0.60089175  0.28333966     0.36900
C344        C  0.72202576  0.56065396  0.23040685     0.40200
N345        N  0.56017333  0.57598210  0.21866546    -0.37900
N346        N  0.65179143  0.61188257  0.22403573    -0.39500
N347        N  0.53757271  0.47946682  0.29293603    -0.37200
N348        N  0.62879893  0.52011467  0.29539486    -0.39600
N349        N  0.63786963  0.52009639  0.22042219    -0.39400
N350        N  0.73311525  0.55402055  0.21922368    -0.37000
N351        N  0.74845158  0.62110820  0.29850548    -0.38100
N352        N  0.65917110  0.61129963  0.29333007    -0.39700
C353        C  0.89710816  0.73577807  0.34628745    -0.04700
C354        C  0.88415556  0.75024331  0.33596616     0.09500
C355        C  0.87532423  0.77159732  0.34285011    -0.02100
C356        C  0.87685619  0.77652659  0.36025897    -0.00300
C357        C  0.89315956  0.76485401  0.37125850    -0.03900
C358        C  0.90324516  0.74405547  0.36347603     0.03100
C359        C  0.87657493  0.74001894  0.31810509     0.09900
C360        C  0.86308975  0.78743243  0.33188770     0.35800
C361        C  0.91924981  0.72946902  0.37203182     0.39200
C362        C  0.84352230  0.72156590  0.31285357    -0.04300
C363        C  0.83635817  0.70850797  0.29666718     0.02900
C364        C  0.86125048  0.70910825  0.28683701    -0.03900
C365        C  0.89439014  0.72934134  0.29138774    -0.00100
C366        C  0.90208613  0.74626226  0.30674761    -0.02700
C367        C  0.81673427  0.71422179  0.32428595     0.36600
C368        C  0.92022505  0.73119958  0.28085118     0.40200
C369        C  0.80384369  0.69593216  0.28972802     0.39300
C370        C  0.93603340  0.76867319  0.31128801     0.36200
C371        C  0.90359608  0.71145509  0.33907746     0.36900
C372        C  0.85973341  0.79251237  0.36652340     0.40200
N373        N  0.77837172  0.68729017  0.28390864    -0.37900
N374        N  0.79534177  0.70831507  0.33338083    -0.39500
N375        N  0.94082294  0.73252536  0.27247526    -0.37200
N376        N  0.96307275  0.78665534  0.31495117    -0.39600
N377        N  0.85293384  0.79940108  0.32302256    -0.39400
N378        N  0.84518513  0.80462391  0.37096464    -0.37000
N379        N  0.93175746  0.71576988  0.37706954    -0.38100
N380        N  0.90875797  0.69220632  0.33330230    -0.39700
C381        C  0.80716445  0.69538121  0.14004880    -0.04700
C382        C  0.83464259  0.70650400  0.15037633     0.09500
C383        C  0.86539289  0.73039999  0.14446710    -0.02100
C384        C  0.86977340  0.73966684  0.12746064    -0.00300
C385        C  0.84210863  0.72879974  0.11605537    -0.03900
C386        C  0.81018713  0.70845025  0.12370919     0.03100
C387        C  0.83137806  0.69331744  0.16771535     0.09900
C388        C  0.89309171  0.74468177  0.15598673     0.35800
C389        C  0.77949355  0.70219587  0.11677153     0.39200
C390        C  0.84326487  0.67221265  0.17142085    -0.04300
C391        C  0.84175559  0.66110756  0.18792056     0.02900
C392        C  0.82766233  0.67044798  0.20077149    -0.03900
C393        C  0.81556729  0.69142573  0.19702649    -0.00100
C394        C  0.81806907  0.70334607  0.18060295    -0.02700
C395        C  0.85841560  0.66289812  0.15846184     0.36600
C396        C  0.80009489  0.70046181  0.20996038     0.40200
C397        C  0.85654193  0.64164024  0.19177168     0.39300
C398        C  0.80816080  0.72696853  0.17705533     0.36200
C399        C  0.77526567  0.67039532  0.14651700     0.36900
C400        C  0.90381982  0.75777311  0.12200401     0.40200
N401        N  0.86849989  0.62630863  0.19485617    -0.37900
N402        N  0.87109039  0.65534428  0.14851965    -0.39500
N403        N  0.78770817  0.70761068  0.22027124    -0.37200
N404        N  0.80052682  0.74600362  0.17421672    -0.39600
N405        N  0.91499944  0.75605555  0.16519672    -0.39400
N406        N  0.93141300  0.77120656  0.11852175    -0.37000
N407        N  0.75343084  0.69642414  0.11319510    -0.38100
N408        N  0.74993918  0.65051648  0.15166785    -0.39700
C409        C  0.24632287  0.13452204  0.14985389    -0.04700
C410        C  0.27858954  0.14363263  0.15358136     0.09500
C411        C  0.29669898  0.13715276  0.14194561    -0.02100
C412        C  0.28452558  0.12659676  0.12552559    -0.00300
C413        C  0.25257735  0.12079543  0.12069861    -0.03900
C414        C  0.23219944  0.11825451  0.13474482     0.03100
C415        C  0.29155756  0.15459650  0.17081377     0.09900
C416        C  0.32820746  0.14163941  0.14696839     0.35800
C417        C  0.19785485  0.09319248  0.13625044     0.39200
C418        C  0.28363349  0.13096304  0.18345458    -0.04300
C419        C  0.29896219  0.14048633  0.19917809     0.02900
C420        C  0.32246347  0.17372240  0.20226300    -0.03900
C421        C  0.32878991  0.19764999  0.18995450    -0.00100
C422        C  0.31308628  0.18805388  0.17424732    -0.02700
C423        C  0.26038680  0.09666178  0.18004435     0.36600
C424        C  0.35101305  0.23206390  0.19351952     0.40200
C425        C  0.29200143  0.11570237  0.21177888     0.39300
C426        C  0.31897547  0.21237797  0.16157694     0.36200
C427        C  0.22653672  0.13898279  0.16230921     0.36900
C428        C  0.30636831  0.12273653  0.11424405     0.40200
N429        N  0.28651959  0.09597902  0.22183257    -0.37900
N430        N  0.24172751  0.06937814  0.17726599    -0.39500
N431        N  0.36849831  0.25959189  0.19633054    -0.37200
N432        N  0.32335543  0.23168398  0.15146914    -0.39600
N433        N  0.35311397  0.14494347  0.15105145    -0.39400
N434        N  0.32525496  0.12022698  0.10615427    -0.37000
N435        N  0.17069313  0.07331852  0.13862377    -0.38100
N436        N  0.21075536  0.14254346  0.17220093    -0.39700
C437        C  0.29638745  0.16827650  0.35085813    -0.04700
C438        C  0.32154304  0.16316937  0.34572347     0.09500
C439        C  0.33658864  0.15311973  0.35739991    -0.02100
C440        C  0.32367147  0.14368277  0.37383144    -0.00300
C441        C  0.29717113  0.14790764  0.37951199    -0.03900
C442        C  0.28652814  0.16384389  0.36770585     0.03100
C443        C  0.33189804  0.16811957  0.32779020     0.09900
C444        C  0.36567060  0.15239149  0.35224990     0.35800
C445        C  0.26491304  0.17584162  0.37249094     0.39200
C446        C  0.34754076  0.19983383  0.32073653    -0.04300
C447        C  0.35403265  0.20397485  0.30342272     0.02900
C448        C  0.34762602  0.17688084  0.29344254    -0.03900
C449        C  0.33291270  0.14532129  0.30054099    -0.00100
C450        C  0.32418635  0.14078768  0.31761860    -0.02700
C451        C  0.35688316  0.22810728  0.33133226     0.36600
C452        C  0.32655184  0.11754504  0.29021952     0.40200
C453        C  0.36590992  0.23578817  0.29579295     0.39300
C454        C  0.30691255  0.10803091  0.32470347     0.36200
C455        C  0.28010238  0.17770473  0.33857401     0.36900
C456        C  0.33937436  0.13039291  0.38379861     0.40200
N457        N  0.37455307  0.26109634  0.28979301    -0.37900
N458        N  0.36429149  0.25053114  0.33986135    -0.39500
N459        N  0.32156614  0.09543349  0.28197418    -0.37200
N460        N  0.29314732  0.08197262  0.33042539    -0.39600
N461        N  0.38891335  0.15204489  0.34818308    -0.39400
N462        N  0.35456802  0.12054736  0.39008535    -0.37000
N463        N  0.24831611  0.18621650  0.37601523    -0.38100
N464        N  0.26725987  0.18514423  0.32870944    -0.39700
C465        C  0.86999956  0.17308341  0.33977562    -0.04700
C466        C  0.85671952  0.14659954  0.32869240     0.09500
C467        C  0.85233255  0.11663097  0.33373384    -0.02100
C468        C  0.86001284  0.11234767  0.35020101    -0.00300
C469        C  0.87561030  0.13948350  0.36205502    -0.03900
C470        C  0.88051912  0.17036691  0.35600585     0.03100
C471        C  0.84533880  0.14972434  0.31181749     0.09900
C472        C  0.83917927  0.08969716  0.32176703     0.35800
C473        C  0.89723841  0.20084160  0.36507900     0.39200
C474        C  0.86775919  0.16341339  0.29837828    -0.04300
C475        C  0.85727792  0.16905637  0.28289408     0.02900
C476        C  0.82422288  0.16048231  0.28089620    -0.03900
C477        C  0.80124624  0.14352462  0.29380087    -0.00100
C478        C  0.81192649  0.13894467  0.30938102    -0.02700
C479        C  0.90163908  0.17221369  0.30065359     0.36600
C480        C  0.76643982  0.13011412  0.29093219     0.40200
C481        C  0.88077125  0.18484734  0.26937782     0.39300
C482        C  0.78859994  0.12387453  0.32302606     0.36200
C483        C  0.87295206  0.20365848  0.33417543     0.36900
C484        C  0.85010147  0.07878536  0.35450500     0.40200
N485        N  0.89951633  0.19739110  0.25858643    -0.37900
N486        N  0.92862679  0.17909498  0.30246623    -0.39500
N487        N  0.73865495  0.11899514  0.28859743    -0.37200
N488        N  0.76966261  0.11184403  0.33377140    -0.39600
N489        N  0.82879236  0.06837720  0.31221923    -0.39400
N490        N  0.84089724  0.05143601  0.35703494    -0.37000
N491        N  0.91028883  0.22696184  0.37069074    -0.65300
N492        N  0.87515282  0.22784588  0.32968247    -0.39700
C493        C  0.78095423  0.13881629  0.16991568    -0.04700
C494        C  0.80048254  0.16464583  0.15880535     0.09500
C495        C  0.81029502  0.19712387  0.16310881    -0.02100
C496        C  0.80586297  0.20441129  0.17964377    -0.00300
C497        C  0.79095660  0.17889669  0.19156707    -0.03900
C498        C  0.77612803  0.14593519  0.18636103     0.03100
C499        C  0.81823179  0.15854656  0.14532769     0.09900
C500        C  0.82698104  0.22320213  0.15091246     0.35800
C501        C  0.75716057  0.11941262  0.19808879     0.39200
C502        C  0.80815812  0.15484073  0.12868695    -0.04300
C503        C  0.82634270  0.15015571  0.11614144     0.02900
C504        C  0.85225719  0.14361720  0.12032162    -0.03900
C505        C  0.85857219  0.14342245  0.13805419    -0.00100
C506        C  0.84458207  0.15476847  0.14982085    -0.02700
C507        C  0.77976860  0.15735501  0.12443895     0.36600
C508        C  0.87460063  0.12772772  0.14569551     0.40200
C509        C  0.81991820  0.15605408  0.09911650     0.39300
C510        C  0.85641144  0.16125904  0.16707848     0.36200
C511        C  0.76885972  0.10519388  0.16487358     0.36900
C512        C  0.81953035  0.23828384  0.18467227     0.40200
N513        N  0.81360453  0.16213692  0.08611130    -0.37900
N514        N  0.75707260  0.15922693  0.12109562    -0.39500
N515        N  0.88539827  0.11465092  0.15324817    -0.37200
N516        N  0.86582078  0.16655023  0.18075993    -0.39600
N517        N  0.83993442  0.24424353  0.14125759    -0.39400
N518        N  0.83056838  0.26531441  0.18868848    -0.37000
N519        N  0.74199033  0.09830718  0.20744996    -0.38100
N520        N  0.75946435  0.07845820  0.16081505    -0.39700
C521        C  0.15288975  0.10218134  0.10955561    -0.04700
C522        C  0.13268703  0.06997538  0.10371121     0.09500
C523        C  0.14585625  0.05661262  0.09281365    -0.02100
C524        C  0.18012967  0.07231596  0.09044329    -0.00300
C525        C  0.20218671  0.10154831  0.09984361    -0.03900
C526        C  0.18711661  0.11859259  0.10694619     0.03100
C527        C  0.09865329  0.04939072  0.11046491     0.09900
C528        C  0.12375079  0.02609574  0.08421103     0.35800
C529        C  0.20622847  0.15116439  0.11416190     0.39200
C530        C  0.07523008  0.05885075  0.10809686    -0.04300
C531        C  0.04769268  0.04637271  0.11878226     0.02900
C532        C  0.04339582  0.02375661  0.13149500    -0.03900
C533        C  0.06245971  0.00876439  0.13090824    -0.00100
C534        C  0.09083104  0.02235102  0.12095163    -0.02700
C535        C  0.08033733  0.08240597  0.09511407     0.36600
C536        C  0.05241163  0.97892540  0.14034508     0.40200
C537        C  0.02347823  0.05563528  0.11586776     0.39300
C538        C  0.11226819  0.00907069  0.12215165     0.36200
C539        C  0.13910095  0.11718385  0.12008770     0.36900
C540        C  0.19056908  0.05853260  0.07728672     0.40200
N541        N  0.00408069  0.06255546  0.11254765    -0.37900
N542        N  0.08458775  0.10133657  0.08481347    -0.39500
N543        N  0.04404775  0.95490592  0.14768891    -0.37200
N544        N  0.12875325  0.99777570  0.12313971    -0.39600
N545        N  0.10622623  0.00169580  0.07746458    -0.39400
N546        N  0.19744343  0.04662195  0.06660361    -0.37000
N547        N  0.22024098  0.17652496  0.12059722    -0.38100
N548        N  0.12824846  0.12916992  0.12849966    -0.39700
C549        C  0.92217975  0.05451009  0.14739923    -0.04700
C550        C  0.94480441  0.08362180  0.13877142     0.09500
C551        C  0.97864957  0.09451795  0.13935189    -0.02100
C552        C  0.98929669  0.07577969  0.14791300    -0.00300
C553        C  0.96605524  0.04416534  0.15369502    -0.03900
C554        C  0.93265398  0.03412838  0.15417801     0.03100
C555        C  0.93206442  0.10003855  0.12767397     0.09900
C556        C  0.00225222  0.12323244  0.12998885     0.35800
C557        C  0.90905783  0.00251406  0.16127874     0.39200
C558        C  0.93987874  0.13239262  0.13033478    -0.04300
C559        C  0.92319839  0.14520461  0.12135996     0.02900
C560        C  0.89433216  0.12392280  0.11159656    -0.03900
C561        C  0.89100393  0.09278708  0.10702091    -0.00100
C562        C  0.91061406  0.08203735  0.11465794    -0.02700
C563        C  0.96235096  0.15142148  0.14375718     0.36600
C564        C  0.86938521  0.07116703  0.09399949     0.40200
C565        C  0.93413625  0.17931756  0.12453299     0.39300
C566        C  0.90854851  0.05171242  0.10929951     0.36200
C567        C  0.88775711  0.04440967  0.14848598     0.36900
C568        C  0.02410145  0.08856722  0.15032476     0.40200
N569        N  0.94484452  0.20661192  0.12791584    -0.37900
N570        N  0.98003059  0.16654900  0.15450382    -0.39500
N571        N  0.85297508  0.05319376  0.08362605    -0.37200
N572        N  0.90701100  0.02768267  0.10507356    -0.39600
N573        N  0.02110757  0.14601863  0.12244949    -0.39400
N574        N  0.05185896  0.09886653  0.15231389    -0.37000
N575        N  0.89020615  0.97728284  0.16690993    -0.38100
N576        N  0.86014819  0.03571154  0.14944492    -0.39700
C577        C  0.93938096  0.90417501  0.11505706    -0.04700
C578        C  0.92183122  0.87451328  0.12388023     0.09500
C579        C  0.91702053  0.87521425  0.14129975    -0.02100
C580        C  0.92883377  0.90534555  0.14965780    -0.00300
C581        C  0.95045665  0.93548883  0.14141846    -0.03900
C582        C  0.95490101  0.93434225  0.12371846     0.03100
C583        C  0.90421077  0.84268901  0.11452084     0.09900
C584        C  0.89913420  0.84468908  0.15060524     0.35800
C585        C  0.97451901  0.96319286  0.11361743     0.39200
C586        C  0.92108796  0.83060760  0.10533431    -0.04300
C587        C  0.90350567  0.80085331  0.09628566     0.02900
C588        C  0.86926425  0.77881744  0.09954723    -0.03900
C589        C  0.85262326  0.79339094  0.10771672    -0.00100
C590        C  0.86994069  0.82552934  0.11402718    -0.02700
C591        C  0.95673631  0.84873839  0.10523311     0.36600
C592        C  0.81744344  0.77648253  0.10996993     0.40200
C593        C  0.92119525  0.79612992  0.08293678     0.39300
C594        C  0.85239725  0.84114806  0.12025265     0.36200
C595        C  0.94071037  0.90361306  0.09682886     0.36900
C596        C  0.91624098  0.90487214  0.16632548     0.40200
N597        N  0.93725018  0.79596195  0.07203851    -0.37900
N598        N  0.98514148  0.86311137  0.10516332    -0.39500
N599        N  0.78979812  0.76597419  0.11242402    -0.37200
N600        N  0.83856468  0.85370547  0.12512060    -0.39600
N601        N  0.88489793  0.82033499  0.15798242    -0.39400
N602        N  0.90572708  0.90400154  0.17955199    -0.37000
N603        N  0.98885833  0.98468567  0.10435757    -0.38100
N604        N  0.94168562  0.90307543  0.08233321    -0.39700
C605        C  0.04646727  0.03920278  0.25349717    -0.04700
C606        C  0.03646595  0.00836476  0.24656923     0.09500
C607        C  0.03203251  0.98261551  0.25702166    -0.02100
C608        C  0.03389576  0.98657969  0.27460348    -0.00300
C609        C  0.03795556  0.01581825  0.28189260    -0.03900
C610        C  0.04858023  0.04336438  0.27102304     0.03100
C611        C  0.02804394  0.00245842  0.22842415     0.09900
C612        C  0.02566112  0.95205795  0.24958139     0.35800
C613        C  0.06337748  0.07645274  0.27755721     0.39200
C614        C  0.05166448  0.00705549  0.21635005    -0.04300
C615        C  0.04338206  0.00254631  0.19915532     0.02900
C616        C  0.01238307  0.99721113  0.19377420    -0.03900
C617        C  0.98775262  0.98883917  0.20631619    -0.00100
C618        C  0.99581275  0.99205089  0.22344273    -0.02700
C619        C  0.08466437  0.01678683  0.22166040     0.36600
C620        C  0.95383944  0.97711106  0.20185837     0.40200
C621        C  0.06531769  0.99918210  0.18780627     0.39300
C622        C  0.97110057  0.98567556  0.23608189     0.36200
C623        C  0.05425575  0.06658811  0.24248507     0.36900
C624        C  0.03469747  0.96168433  0.28471250     0.40200
N625        N  0.08322998  0.99621617  0.17914180    -0.37900
N626        N  0.11107547  0.02484668  0.22585984    -0.39500
N627        N  0.92679119  0.96813244  0.19855610    -0.37200
N628        N  0.95161527  0.98076622  0.24622845    -0.39600
N629        N  0.02076301  0.92777765  0.24361108    -0.39400
N630        N  0.03537102  0.94164869  0.29263849    -0.37000
N631        N  0.07522858  0.10294023  0.28261517    -0.38100
N632        N  0.06046451  0.08833051  0.23364938    -0.39700
C633        C  0.98900651  0.93917107  0.36825346    -0.04700
C634        C  0.95950149  0.91202639  0.36284749     0.09500
C635        C  0.94498787  0.91374763  0.34789120    -0.02100
C636        C  0.96172977  0.94125682  0.33729716    -0.00300
C637        C  0.99371690  0.96750175  0.34156799    -0.03900
C638        C  0.00577195  0.96714398  0.35797437     0.03100
C639        C  0.94625262  0.88003450  0.37163961     0.09900
C640        C  0.91294238  0.88660600  0.34327180     0.35800
C641        C  0.03516357  0.99463619  0.36493438     0.39200
C642        C  0.92136512  0.86960575  0.38370044    -0.04300
C643        C  0.90823427  0.83857194  0.39152392     0.02900
C644        C  0.91844116  0.81615534  0.38631676    -0.03900
C645        C  0.94675935  0.82961783  0.37522105    -0.00100
C646        C  0.95980537  0.86072898  0.36795139    -0.02700
C647        C  0.90914511  0.89117229  0.38794991     0.36600
C648        C  0.96331367  0.81192575  0.37089433     0.40200
C649        C  0.88589979  0.83234406  0.40522392     0.39300
C650        C  0.98724734  0.87293996  0.35624596     0.36200
C651        C  0.00278436  0.93754585  0.38424524     0.36900
C652        C  0.94513051  0.94196421  0.32220767     0.40200
N653        N  0.86925074  0.83084653  0.41623640    -0.37900
N654        N  0.89938344  0.90834116  0.39127099    -0.39500
N655        N  0.97768294  0.79916134  0.36728062    -0.37200
N656        N  0.00910841  0.88273159  0.34698509    -0.39600
N657        N  0.88721431  0.86510895  0.33972652    -0.39400
N658        N  0.93121137  0.94117575  0.31015646    -0.37000
N659        N  0.05788806  0.01606969  0.37138270    -0.38100
N660        N  0.01380198  0.93616361  0.39693503    -0.39700
C661        C  0.92364915  0.07537277  0.36999679    -0.04700
C662        C  0.94662257  0.09379042  0.35752020     0.09500
C663        C  0.95171649  0.12431812  0.35288574    -0.02100
C664        C  0.93490847  0.13740710  0.36115831    -0.00300
C665        C  0.90903686  0.11831965  0.37320530    -0.03900
C666        C  0.90424695  0.08672485  0.37752401     0.03100
C667        C  0.96588812  0.08120792  0.34900475     0.09900
C668        C  0.97441633  0.14233243  0.33927178     0.35800
C669        C  0.87937634  0.06414860  0.38901271     0.39200
C670        C  0.95187712  0.05900754  0.33564651    -0.04300
C671        C  0.97067011  0.04867353  0.32681600     0.02900
C672        C  0.00409403  0.06114892  0.33109286    -0.03900
C673        C  0.01803497  0.08385160  0.34447117    -0.00100
C674        C  0.99884138  0.09351234  0.35347568    -0.02700
C675        C  0.91800041  0.04696836  0.33096668     0.36600
C676        C  0.05217702  0.09781714  0.34908190     0.40200
C677        C  0.95491408  0.02468650  0.31359058     0.39300
C678        C  0.01292145  0.11625421  0.36739921     0.36200
C679        C  0.91972395  0.04407822  0.37486386     0.36900
C680        C  0.94590941  0.17139578  0.35723861     0.40200
N681        N  0.94209726  0.00601386  0.30286244    -0.37900
N682        N  0.89100125  0.03744894  0.32729245    -0.39500
N683        N  0.07916103  0.10933285  0.35334636    -0.37200
N684        N  0.02404263  0.13436695  0.37850028    -0.39600
N685        N  0.99226760  0.15651382  0.32836697    -0.39400
N686        N  0.95631213  0.19863750  0.35382248    -0.37000
N687        N  0.85997230  0.04382053  0.39761613    -0.38100
N688        N  0.91664807  0.01919750  0.37872369    -0.39700
C689        C  0.20931369  0.07707684  0.36506322    -0.04700
C690        C  0.18414637  0.08370557  0.36761323     0.09500
C691        C  0.18511399  0.10192846  0.38167860    -0.02100
C692        C  0.21312018  0.11716547  0.39217586    -0.00300
C693        C  0.24094324  0.11357986  0.38891170    -0.03900
C694        C  0.23601357  0.08962162  0.37617501     0.03100
C695        C  0.15643395  0.07179471  0.35544147     0.09900
C696        C  0.15673786  0.10507209  0.38522659     0.35800
C697        C  0.25863339  0.07780493  0.37386089     0.39200
C698        C  0.13307042  0.03801126  0.35393635    -0.04300
C699        C  0.10615502  0.02752099  0.34309407     0.02900
C700        C  0.10080095  0.05082759  0.33511442    -0.03900
C701        C  0.12525721  0.08419815  0.33552846    -0.00100
C702        C  0.15319960  0.09467184  0.34557537    -0.02700
C703        C  0.13622864  0.01410967  0.36376803     0.36600
C704        C  0.12192367  0.10760637  0.32535021     0.40200
C705        C  0.08449754  0.99283761  0.33979822     0.39300
C706        C  0.17844897  0.12906472  0.34589677     0.36200
C707        C  0.20828971  0.05796281  0.35057699     0.36900
C708        C  0.21026553  0.13394092  0.40652908     0.40200
N709        N  0.06736794  0.96519611  0.33709881    -0.37900
N710        N  0.13877556  0.99497426  0.37153064    -0.39500
N711        N  0.11921526  0.12624212  0.31722979    -0.37200
N712        N  0.19837034  0.15658249  0.34611702    -0.39600
N713        N  0.13410329  0.10747441  0.38795430    -0.39400
N714        N  0.20403365  0.14550517  0.41763613    -0.37000
N715        N  0.27569745  0.06737633  0.37179323    -0.38100
N716        N  0.20754082  0.04266760  0.33911024    -0.39700
C717        C  0.47335713  0.49255221  0.29574846    -0.04700
C718        C  0.48729475  0.52537457  0.30048573     0.09500
C719        C  0.50610148  0.54965891  0.28862387    -0.02100
C720        C  0.51217638  0.54147685  0.27233714    -0.00300
C721        C  0.50081528  0.50798903  0.26732324    -0.03900
C722        C  0.48066467  0.48362947  0.27996130     0.03100
C723        C  0.48180845  0.53411931  0.31810582     0.09900
C724        C  0.51907381  0.58366933  0.29328795     0.35800
C725        C  0.46999061  0.44921387  0.27904727     0.39200
C726        C  0.50682153  0.54621665  0.33020521    -0.04300
C727        C  0.50218341  0.55552131  0.34656322     0.02900
C728        C  0.47019119  0.54859380  0.35230001    -0.03900
C729        C  0.44461165  0.53407787  0.33955357    -0.00100
C730        C  0.45116033  0.52919407  0.32276931    -0.02700
C731        C  0.53818237  0.54990394  0.32549394     0.36600
C732        C  0.41038451  0.52263142  0.34328811     0.40200
C733        C  0.53220531  0.57491564  0.35588127     0.39300
C734        C  0.42591858  0.51877609  0.30999143     0.36200
C735        C  0.45235714  0.46738387  0.30782920     0.36900
C736        C  0.52973916  0.56883940  0.26093360     0.40200
N737        N  0.55767723  0.59096113  0.36204549    -0.37900
N738        N  0.56308646  0.55276991  0.32171185    -0.39500
N739        N  0.38270804  0.51251053  0.34556705    -0.37200
N740        N  0.40606273  0.51059378  0.29970649    -0.39600
N741        N  0.52938876  0.61069809  0.29709696    -0.39400
N742        N  0.54289154  0.59228517  0.25279213    -0.37000
N743        N  0.46070468  0.42151142  0.27991687    -0.38100
N744        N  0.43545172  0.44716569  0.31725294    -0.39700
C745        C  0.40013416  0.59011257  0.35795861    -0.04700
C746        C  0.41713815  0.61115231  0.34450111     0.09500
C747        C  0.44933312  0.61901714  0.34114483    -0.02100
C748        C  0.46445465  0.60573511  0.35097496    -0.00300
C749        C  0.44631369  0.58044153  0.36338885    -0.03900
C750        C  0.41371479  0.57408467  0.36704486     0.03100
C751        C  0.40222446  0.62735478  0.33462784     0.09900
C752        C  0.46720483  0.64134920  0.32743301     0.35800
C753        C  0.39221272  0.55072881  0.37946507     0.39200
C754        C  0.40968170  0.65894028  0.33883056    -0.04300
C755        C  0.39754095  0.67509833  0.32902499     0.02900
C756        C  0.37039174  0.65725410  0.31759790    -0.03900
C757        C  0.36813978  0.62760846  0.31144603    -0.00100
C758        C  0.38397840  0.61308059  0.31998790    -0.02700
C759        C  0.43174739  0.67581475  0.35275080     0.36600
C760        C  0.34947480  0.61050118  0.29671203     0.40200
C761        C  0.41791480  0.71041646  0.32915644     0.39300
C762        C  0.38031423  0.58244158  0.31417886     0.36200
C763        C  0.36813794  0.58490525  0.36253016     0.36900
C764        C  0.49944404  0.61971834  0.34833743     0.40200
N765        N  0.43552605  0.73844973  0.32973983    -0.37900
N766        N  0.44935450  0.68936826  0.36379036    -0.39500
N767        N  0.33574438  0.59529976  0.28498878    -0.37200
N768        N  0.37742858  0.55800966  0.30960810    -0.39600
N769        N  0.48131887  0.65901370  0.31646647    -0.39400
N770        N  0.52741417  0.63251835  0.34592588    -0.37000
N771        N  0.37293649  0.53242510  0.38889587    -0.38100
N772        N  0.34280912  0.58070671  0.36653336    -0.39700
C773        C  0.44400066  0.91529121  0.32439243    -0.04700
C774        C  0.47465643  0.93498703  0.31682132     0.09500
C775        C  0.50290494  0.94380855  0.32634073    -0.02100
C776        C  0.50095819  0.93366367  0.34342770    -0.00300
C777        C  0.46972592  0.91456825  0.35203232    -0.03900
C778        C  0.44123176  0.90551876  0.34147315     0.03100
C779        C  0.47718939  0.94975717  0.29948402     0.09900
C780        C  0.53460476  0.96336148  0.31813362     0.35800
C781        C  0.40796559  0.88800703  0.34808470     0.39200
C782        C  0.48449282  0.98216701  0.29822895    -0.04300
C783        C  0.48664013  0.99683418  0.28245713     0.02900
C784        C  0.48235795  0.97978421  0.26674992    -0.03900
C785        C  0.47495790  0.94640546  0.26838800    -0.00100
C786        C  0.47221229  0.93190989  0.28453373    -0.02700
C787        C  0.49037198  0.00118175  0.31348377     0.36600
C788        C  0.47406748  0.92732115  0.25401533     0.40200
C789        C  0.49231630  0.02976728  0.28326267     0.39300
C790        C  0.46634300  0.89889880  0.28581649     0.36200
C791        C  0.41473147  0.90575340  0.31450788     0.36900
C792        C  0.53218939  0.94242576  0.35081673     0.40200
N793        N  0.49653705  0.05556839  0.28585832    -0.37900
N794        N  0.49565474  0.01722733  0.32530450    -0.39500
N795        N  0.47371492  0.91137818  0.24294319    -0.37200
N796        N  0.46202010  0.87269741  0.28678875    -0.39600
N797        N  0.55973667  0.97889685  0.31152432    -0.39400
N798        N  0.55830922  0.95018643  0.35543846    -0.37000
N799        N  0.38096391  0.87493929  0.35262916    -0.38100
N800        N  0.39142968  0.89805314  0.30663136    -0.39700
C801        C  0.38246925  0.76604391  0.32092688    -0.04700
C802        C  0.38762071  0.76724322  0.33831192     0.09500
C803        C  0.37479680  0.73761952  0.34714221    -0.02100
C804        C  0.35848502  0.70714506  0.33864558    -0.00300
C805        C  0.35807887  0.70520229  0.32045402    -0.03900
C806        C  0.36823954  0.73589256  0.31195218     0.03100
C807        C  0.40676719  0.79972741  0.34742635     0.09900
C808        C  0.38045003  0.73855088  0.36511790     0.35800
C809        C  0.36287474  0.73850915  0.29432629     0.39200
C810        C  0.39156010  0.80886422  0.35964700    -0.04300
C811        C  0.40986270  0.83789065  0.36930634     0.02900
C812        C  0.44390172  0.86099640  0.36566119    -0.03900
C813        C  0.45905708  0.84954629  0.35391068    -0.00100
C814        C  0.44060412  0.82031916  0.34463962    -0.02700
C815        C  0.35613752  0.78874931  0.36173125     0.36600
C816        C  0.49443315  0.86613318  0.35189588     0.40200
C817        C  0.39192986  0.84192363  0.38276425     0.39300
C818        C  0.45683921  0.81220504  0.33167701     0.36200
C819        C  0.39163818  0.79650174  0.31226270     0.36900
C820        C  0.34572251  0.67822065  0.34922987     0.40200
N821        N  0.37525197  0.84215175  0.39329296    -0.37900
N822        N  0.32794975  0.77280724  0.36332373    -0.39500
N823        N  0.52235024  0.87691971  0.35017133    -0.37200
N824        N  0.47041878  0.80700052  0.32116988    -0.39600
N825        N  0.38504787  0.73934292  0.37940586    -0.39400
N826        N  0.33647212  0.65619285  0.35829801    -0.37000
N827        N  0.35915050  0.74315612  0.28047072    -0.38100
N828        N  0.39887940  0.82077448  0.30544511    -0.39700
C829        C  0.06304501  0.56489398  0.33092341    -0.04700
C830        C  0.06783396  0.54265948  0.32121359     0.09500
C831        C  0.08004458  0.52515251  0.32983952    -0.02100
C832        C  0.08301678  0.52713600  0.34741704    -0.00300
C833        C  0.08945126  0.55587868  0.35596272    -0.03900
C834        C  0.07437607  0.57222780  0.34793995     0.03100
C835        C  0.05581204  0.53394709  0.30306040     0.09900
C836        C  0.08816706  0.50355976  0.32107050     0.35800
C837        C  0.06988282  0.59669744  0.35630007     0.39200
C838        C  0.06617161  0.55750151  0.28992948    -0.04300
C839        C  0.05020010  0.54885064  0.27393662     0.02900
C840        C  0.02708911  0.51522361  0.26977029    -0.03900
C841        C  0.02558161  0.49207839  0.28174036    -0.00100
C842        C  0.03375051  0.50099377  0.29862588    -0.02700
C843        C  0.09272454  0.59073546  0.29271257     0.36600
C844        C  0.02245116  0.46127222  0.27682718     0.40200
C845        C  0.05672628  0.57492650  0.26223637     0.39300
C846        C  0.01804715  0.47565548  0.31130990     0.36200
C847        C  0.04873733  0.58237220  0.32326608     0.36900
C848        C  0.06391487  0.49624565  0.35613334     0.40200
N849        N  0.06191554  0.59582731  0.25299702    -0.37900
N850        N  0.11399680  0.61747418  0.29440399    -0.39500
N851        N  0.02091357  0.43687399  0.27339248    -0.37200
N852        N  0.00525925  0.45530727  0.32133511    -0.39600
N853        N  0.09477436  0.48635516  0.31409642    -0.39400
N854        N  0.04801545  0.47144600  0.36293509    -0.37000
N855        N  0.06502929  0.61603939  0.36224080    -0.38100
N856        N  0.03814678  0.59735346  0.31750702    -0.39700
C857        C  0.18525405  0.60266999  0.33553817    -0.04700
C858        C  0.21391631  0.61104355  0.34457403     0.09500
C859        C  0.21270042  0.61117824  0.36220261    -0.02100
C860        C  0.18248965  0.60006100  0.37070512    -0.00300
C861        C  0.15277037  0.59030877  0.36160071    -0.03900
C862        C  0.15694565  0.59744323  0.34402924     0.03100
C863        C  0.24620070  0.62368697  0.33558701     0.09900
C864        C  0.24300691  0.62378533  0.37162253     0.35800
C865        C  0.14070870  0.61262645  0.33615494     0.39200
C866        C  0.25964394  0.65261001  0.32618370    -0.04300
C867        C  0.28810915  0.66290625  0.31646595     0.02900
C868        C  0.30905585  0.64950771  0.31887719    -0.03900
C869        C  0.29448916  0.61956303  0.32859503    -0.00100
C870        C  0.26299637  0.60656058  0.33618526    -0.02700
C871        C  0.24401216  0.67210674  0.32641917     0.36600
C872        C  0.30885523  0.59948232  0.33060421     0.40200
C873        C  0.29242156  0.68442602  0.30260932     0.39300
C874        C  0.24752701  0.57517129  0.34486367     0.36200
C875        C  0.18532933  0.60178663  0.31732831     0.36900
C876        C  0.18401418  0.60280951  0.38877079     0.40200
N877        N  0.29234178  0.69976158  0.29136527    -0.37900
N878        N  0.23164469  0.68767854  0.32664219    -0.39500
N879        N  0.31661582  0.58040830  0.33299214    -0.37200
N880        N  0.23520596  0.55026865  0.35180592    -0.39600
N881        N  0.26719617  0.63393789  0.37908017    -0.39400
N882        N  0.18862820  0.60707243  0.40303545    -0.37000
N883        N  0.13029601  0.62734728  0.32990733    -0.38100
N884        N  0.18527740  0.60110089  0.30281741    -0.39700
C885        C  0.39170859  0.96258167  0.42236731    -0.04700
C886        C  0.37917222  0.93256360  0.41389494     0.09500
C887        C  0.34739990  0.90727943  0.41815223    -0.02100
C888        C  0.32892041  0.91187025  0.43070520    -0.00300
C889        C  0.33733384  0.94419343  0.43619299    -0.03900
C890        C  0.37167035  0.96832205  0.43359944     0.03100
C891        C  0.40161922  0.92567088  0.40322452     0.09900
C892        C  0.33357215  0.87569782  0.40997371     0.35800
C893        C  0.38916117  0.99711237  0.44397924     0.39200
C894        C  0.41677615  0.90975249  0.41027114    -0.04300
C895        C  0.43673423  0.90162845  0.40038514     0.02900
C896        C  0.44400298  0.91100765  0.38285204    -0.03900
C897        C  0.43380316  0.93359351  0.37758909    -0.00100
C898        C  0.41014280  0.93730501  0.38674238    -0.02700
C899        C  0.41084532  0.90077251  0.42793773     0.36600
C900        C  0.44920219  0.95658225  0.36393058     0.40200
C901        C  0.44717445  0.88183080  0.40904911     0.39300
C902        C  0.39483645  0.95369979  0.37896377     0.36200
C903        C  0.42592035  0.98758329  0.41971866     0.36900
C904        C  0.30596667  0.88244038  0.43982876     0.40200
N905        N  0.45342973  0.86612419  0.41760453    -0.37900
N906        N  0.40607631  0.89371220  0.44198547    -0.39500
N907        N  0.46079447  0.97568024  0.35326060    -0.37200
N908        N  0.38304681  0.96652289  0.37207893    -0.39600
N909        N  0.32146602  0.85035191  0.40352601    -0.39400
N910        N  0.28825255  0.85847175  0.44692820    -0.37000
N911        N  0.40584296  0.01961737  0.45225831    -0.38100
N912        N  0.45319450  0.00736858  0.41759257    -0.39700
C913        C  0.26579993  0.05310687  0.41343506    -0.04700
C914        C  0.29732633  0.06195815  0.41903762     0.09500
C915        C  0.31989251  0.09555969  0.42210453    -0.02100
C916        C  0.31279642  0.11996084  0.41670590    -0.00300
C917        C  0.28291981  0.11075873  0.40809730    -0.03900
C918        C  0.25762776  0.07722232  0.41086849     0.03100
C919        C  0.30278639  0.03488738  0.42483860     0.09900
C920        C  0.35100516  0.10549043  0.43007086     0.35800
C921        C  0.22340863  0.06710339  0.41356808     0.39200
C922        C  0.31904863  0.02299274  0.41484952    -0.04300
C923        C  0.31992050  0.99447279  0.41975762     0.02900
C924        C  0.30284939  0.97612758  0.43449327    -0.03900
C925        C  0.28046620  0.98505107  0.44151512    -0.00100
C926        C  0.28465097  0.01613883  0.43867040    -0.02700
C927        C  0.33576482  0.04068026  0.39972896     0.36600
C928        C  0.24941018  0.96176516  0.44910204     0.40200
C929        C  0.33592117  0.98345501  0.40844191     0.39300
C930        C  0.26874212  0.02825404  0.44969539     0.36200
C931        C  0.24089352  0.01880503  0.41107669     0.36900
C932        C  0.33674256  0.15402269  0.41998902     0.40200
N933        N  0.34823815  0.97524477  0.39865998    -0.37900
N934        N  0.34934296  0.05448432  0.38763958    -0.39500
N935        N  0.22336252  0.94459555  0.45447926    -0.37200
N936        N  0.25630049  0.03806507  0.45849342    -0.39600
N937        N  0.37627067  0.11466339  0.43627270    -0.39400
N938        N  0.35644736  0.18079441  0.42316336    -0.37000
N939        N  0.19604253  0.05822265  0.41604216    -0.38100
N940        N  0.22114382  0.99149116  0.40922599    -0.39700
C941        C  0.12031006  0.65065345  0.38954907    -0.04700
C942        C  0.09552664  0.63707387  0.40194173     0.09500
C943        C  0.07676811  0.60249834  0.40307254    -0.02100
C944        C  0.08171989  0.58253012  0.39152603    -0.00300
C945        C  0.11105032  0.59567813  0.38148720    -0.03900
C946        C  0.13035593  0.63114207  0.38080894     0.03100
C947        C  0.09014542  0.65975239  0.41353476     0.09900
C948        C  0.05340471  0.58704647  0.41665902     0.35800
C949        C  0.15970756  0.64951672  0.37070013     0.39200
C950        C  0.05922709  0.65667675  0.41579392    -0.04300
C951        C  0.05520615  0.67798393  0.42683794     0.02900
C952        C  0.08279687  0.70901650  0.43207783    -0.03900
C953        C  0.11447024  0.71241971  0.42869984    -0.00100
C954        C  0.11700577  0.68626748  0.42162397    -0.02700
C955        C  0.03159850  0.63307472  0.40580685     0.36600
C956        C  0.14570289  0.74119303  0.43271133     0.40200
C957        C  0.02176816  0.66790554  0.43131028     0.39300
C958        C  0.14783225  0.68663285  0.42270250     0.36200
C959        C  0.13490417  0.68514665  0.38523471     0.36900
C960        C  0.05678407  0.54800739  0.39058563     0.40200
N961        N  0.99420526  0.65737402  0.43406997    -0.37900
N962        N  0.00963122  0.61449053  0.39773848    -0.39500
N963        N  0.17187866  0.76301052  0.43525236    -0.37200
N964        N  0.17233532  0.68695338  0.42356992    -0.39600
N965        N  0.03488503  0.57465582  0.42755265    -0.39400
N966        N  0.03677519  0.52053074  0.38993668    -0.37000
N967        N  0.18344166  0.66576943  0.36305383    -0.38100
N968        N  0.14644174  0.71252913  0.38178073    -0.39700
C969        C  0.23025563  0.86842856  0.43467704    -0.04700
C970        C  0.21147505  0.85881963  0.44959407     0.09500
C971        C  0.22494689  0.87999546  0.46353396    -0.02100
C972        C  0.25723023  0.90859826  0.46291726    -0.00300
C973        C  0.27583092  0.91940133  0.44742953    -0.03900
C974        C  0.25866063  0.90000375  0.43300946     0.03100
C975        C  0.17622275  0.82901943  0.44951116     0.09900
C976        C  0.20420760  0.87434916  0.47810290     0.35800
C977        C  0.27014700  0.91110807  0.41606905     0.39200
C978        C  0.16369005  0.80398891  0.46180514    -0.04300
C979        C  0.13025446  0.77769587  0.46128582     0.02900
C980        C  0.11174370  0.76896289  0.44582728    -0.03900
C981        C  0.12669655  0.79405445  0.43302806    -0.00100
C982        C  0.15470834  0.82512631  0.43640246    -0.02700
C983        C  0.18515907  0.80418848  0.47477217     0.36600
C984        C  0.11606822  0.78922180  0.41574511     0.40200
C985        C  0.11579074  0.76402621  0.47739751     0.39300
C986        C  0.16169889  0.85311766  0.42599726     0.36200
C987        C  0.22070541  0.84543958  0.42082276     0.36900
C988        C  0.26605413  0.93011130  0.47725780     0.40200
N989        N  0.10570740  0.75534270  0.49082112    -0.37900
N990        N  0.20223219  0.80410993  0.48508953    -0.39500
N991        N  0.11044370  0.78854689  0.40158639    -0.37200
N992        N  0.16726010  0.87546413  0.41778717    -0.39600
N993        N  0.18777258  0.87010777  0.48970386    -0.39400
N994        N  0.27075557  0.94725096  0.48853262    -0.37000
N995        N  0.27757444  0.91821376  0.40219449    -0.38100
N996        N  0.21325510  0.82718653  0.40978351    -0.39700
C997        C  0.01598084  0.74090163  0.41001959    -0.04700
C998        C  0.00398990  0.75709328  0.41988662     0.09500
C999        C  0.02108265  0.77252240  0.43474790    -0.02100
C1000       C  0.04802735  0.76977844  0.44018875    -0.00300
C1001       C  0.05517847  0.74665337  0.43249344    -0.03900
C1002       C  0.04129992  0.73583562  0.41599691     0.03100
C1003       C  0.97602004  0.76139566  0.41387060     0.09900
C1004       C  0.00928326  0.78929886  0.44529964     0.35800
C1005       C  0.05514426  0.72359737  0.40378120     0.39200
C1006       C  0.94304236  0.73507237  0.41306140    -0.04300
C1007       C  0.91753804  0.74006985  0.40696880     0.02900
C1008       C  0.92478023  0.77166192  0.40129170    -0.03900
C1009       C  0.95607069  0.79810519  0.40711234    -0.00100
C1010       C  0.98216864  0.79296012  0.41040913    -0.02700
C1011       C  0.93553544  0.70233344  0.41736121     0.36600
C1012       C  0.96154944  0.82994088  0.41209037     0.40200
C1013       C  0.88443474  0.71207739  0.40610901     0.39300
C1014       C  0.01564261  0.82067083  0.41022690     0.36200
C1015       C  0.00373826  0.73112461  0.39307749     0.36900
C1016       C  0.06566236  0.78854117  0.45491784     0.40200
N1017       N  0.85838264  0.68907476  0.40569808    -0.37900
N1018       N  0.92923942  0.67596282  0.42047289    -0.39500
N1019       N  0.96665363  0.85541363  0.41634173    -0.37200
N1020       N  0.04231667  0.84268293  0.40999119    -0.39600
N1021       N  0.99977598  0.80250452  0.45373393    -0.39400
N1022       N  0.07922420  0.80380996  0.46665271    -0.37000
N1023       N  0.06596710  0.71460820  0.39350017    -0.38100
N1024       N  0.99523330  0.72351931  0.37938343    -0.39700
C1025       C  0.36023757  0.40998376  0.40868033    -0.04700
C1026       C  0.36144483  0.44010552  0.41051090     0.09500
C1027       C  0.33709813  0.43983330  0.42095704    -0.02100
C1028       C  0.31561805  0.41172371  0.43096497    -0.00300
C1029       C  0.31343119  0.38046320  0.42866901    -0.03900
C1030       C  0.33321566  0.38046886  0.41488117     0.03100
C1031       C  0.38692724  0.47081333  0.40071326     0.09900
C1032       C  0.33348644  0.46831785  0.42123406     0.35800
C1033       C  0.32351686  0.35202755  0.40440445     0.39200
C1034       C  0.39163377  0.46936739  0.38332037    -0.04300
C1035       C  0.42003874  0.49451907  0.37519683     0.02900
C1036       C  0.43693001  0.52764875  0.38143334    -0.03900
C1037       C  0.43051383  0.52959132  0.39907454    -0.00100
C1038       C  0.40841554  0.50102445  0.40864986    -0.02700
C1039       C  0.36770992  0.44157395  0.37355767     0.36600
C1040       C  0.44501462  0.56047993  0.40794849     0.40200
C1041       C  0.43436798  0.48298203  0.36294893     0.39300
C1042       C  0.40797561  0.50297555  0.42679905     0.36200
C1043       C  0.38643437  0.40870183  0.39994712     0.36900
C1044       C  0.29642158  0.41621867  0.44370854     0.40200
N1045       N  0.44550312  0.47282014  0.35350575    -0.37900
N1046       N  0.34851592  0.41953078  0.36574444    -0.39500
N1047       N  0.45551289  0.58409898  0.41590700    -0.37200
N1048       N  0.40779629  0.50469020  0.44127386    -0.39600
N1049       N  0.33033675  0.49088533  0.42143861    -0.39400
N1050       N  0.28165982  0.42108767  0.45367439    -0.37000
N1051       N  0.31587903  0.32999343  0.39554532    -0.38100
N1052       N  0.40730317  0.40763876  0.39299648    -0.39700
C1053       C  0.25745732  0.25736151  0.42187208    -0.04700
C1054       C  0.28499840  0.25451753  0.42514664     0.09500
C1055       C  0.31347942  0.28192298  0.43131125    -0.02100
C1056       C  0.31492494  0.31205506  0.43392599    -0.00300
C1057       C  0.28638696  0.31551205  0.43197778    -0.03900
C1058       C  0.25747608  0.28679386  0.42551293     0.03100
C1059       C  0.28605043  0.22443924  0.41984427     0.09900
C1060       C  0.34230796  0.27935186  0.43435018     0.35800
C1061       C  0.22645688  0.28506897  0.42294890     0.39200
C1062       C  0.30514299  0.22655872  0.40591434    -0.04300
C1063       C  0.30883460  0.19997985  0.40161935     0.02900
C1064       C  0.28542275  0.16737920  0.40736419    -0.03900
C1065       C  0.27204340  0.16705438  0.42351647    -0.00100
C1066       C  0.27230498  0.19553164  0.42963294    -0.02700
C1067       C  0.32224936  0.25659717  0.39618553     0.36600
C1068       C  0.25844916  0.13828163  0.43413120     0.40200
C1069       C  0.33930970  0.20820612  0.39317798     0.39300
C1070       C  0.25852443  0.19517916  0.44592364     0.36200
C1071       C  0.22871381  0.22958447  0.41445059     0.36900
C1072       C  0.34724805  0.33974524  0.43783213     0.40200
N1073       N  0.36403420  0.21578562  0.38665853    -0.37900
N1074       N  0.33610640  0.28036856  0.38833457    -0.39500
N1075       N  0.24782317  0.11598155  0.44309222    -0.37200
N1076       N  0.24778609  0.19506964  0.45898770    -0.39600
N1077       N  0.36525465  0.27726605  0.43658458    -0.39400
N1078       N  0.37368273  0.36104176  0.44044088    -0.37000
N1079       N  0.20061711  0.28128885  0.42077460    -0.38100
N1080       N  0.20569056  0.20778069  0.40843932    -0.39700
C1081       C  0.11519902  0.48834677  0.38154981    -0.04700
C1082       C  0.10510733  0.48251695  0.39842470     0.09500
C1083       C  0.10674705  0.50866976  0.40752609    -0.02100
C1084       C  0.11363326  0.53836244  0.39944141    -0.00300
C1085       C  0.11776340  0.54239625  0.38139543    -0.03900
C1086       C  0.12433533  0.51878030  0.37366586     0.03100
C1087       C  0.09555662  0.45003723  0.40711678     0.09900
C1088       C  0.10296018  0.50545189  0.42564567     0.35800
C1089       C  0.14066411  0.52471664  0.35752049     0.39200
C1090       C  0.11908641  0.44148060  0.41073729    -0.04300
C1091       C  0.11066220  0.41164672  0.41928046     0.02900
C1092       C  0.07735759  0.38862136  0.42513149    -0.03900
C1093       C  0.05504396  0.40070434  0.42274035    -0.00100
C1094       C  0.06352616  0.42923702  0.41299786    -0.02700
C1095       C  0.15302546  0.46471716  0.40609154     0.36600
C1096       C  0.02355651  0.38667106  0.43097568     0.40200
C1097       C  0.13878088  0.40839614  0.42259725     0.39300
C1098       C  0.03883596  0.43763199  0.40897868     0.36200
C1099       C  0.11548049  0.46245414  0.37203304     0.36900
C1100       C  0.12032588  0.56506894  0.41066449     0.40200
N1101       N  0.16319660  0.40888973  0.42449906    -0.37900
N1102       N  0.17997577  0.48323577  0.40243042    -0.39500
N1103       N  0.99877270  0.37944635  0.43731994    -0.37200
N1104       N  0.01926712  0.44435813  0.40570222    -0.39600
N1105       N  0.10028047  0.50288385  0.44008184    -0.39400
N1106       N  0.12585148  0.58561019  0.42022511    -0.37000
N1107       N  0.15370456  0.52831192  0.34473648    -0.38100
N1108       N  0.11555749  0.44175412  0.36443856    -0.39700
C1109       C  0.13410021  0.32955438  0.42503947    -0.04700
C1110       C  0.15710135  0.34437902  0.43810090     0.09500
C1111       C  0.14841473  0.35897817  0.45101232    -0.02100
C1112       C  0.11652123  0.35486912  0.45173027    -0.00300
C1113       C  0.09694320  0.34813888  0.43678809    -0.03900
C1114       C  0.10795365  0.33586913  0.42306617     0.03100
C1115       C  0.18986434  0.34479829  0.43822001     0.09900
C1116       C  0.17246554  0.37946251  0.46347579     0.35800
C1117       C  0.09493694  0.33121381  0.40621938     0.39200
C1118       C  0.21127242  0.35521510  0.42417213    -0.04300
C1119       C  0.24022613  0.35295109  0.42407722     0.02900
C1120       C  0.25300615  0.34690361  0.43924206    -0.03900
C1121       C  0.23370523  0.34349030  0.45398925    -0.00100
C1122       C  0.20078245  0.33615820  0.45268713    -0.02700
C1123       C  0.20395468  0.36885454  0.40968947     0.36600
C1124       C  0.24765285  0.35294672  0.47064431     0.40200
C1125       C  0.25592269  0.35675525  0.40793136     0.39300
C1126       C  0.17834343  0.31984985  0.46656004     0.36200
C1127       C  0.13723700  0.30775937  0.41343396     0.36900
C1128       C  0.10332802  0.35007429  0.46849405     0.40200
N1129       N  0.26708104  0.35997740  0.39465085    -0.37900
N1130       N  0.19817390  0.37969761  0.39811318    -0.39500
N1131       N  0.25804144  0.36081855  0.48406496    -0.37200
N1132       N  0.16038925  0.30667165  0.47757880    -0.39600
N1133       N  0.19177393  0.39608064  0.47331072    -0.39400
N1134       N  0.09437399  0.34512246  0.48228521    -0.37000
N1135       N  0.08622527  0.32697804  0.39241252    -0.38100
N1136       N  0.13949012  0.29017738  0.40423551    -0.39700
C1137       C  0.96876551  0.20647024  0.39864966    -0.04700
C1138       C  0.95912947  0.22829296  0.40417922     0.09500
C1139       C  0.92509248  0.21651614  0.40548464    -0.02100
C1140       C  0.90145480  0.18512583  0.39887237    -0.00300
C1141       C  0.91166573  0.16479965  0.39092166    -0.03900
C1142       C  0.94504721  0.17393122  0.39471629     0.03100
C1143       C  0.98510484  0.26085645  0.41144888     0.09900
C1144       C  0.91420143  0.23697620  0.41308665     0.35800
C1145       C  0.95495070  0.15005544  0.39769257     0.39200
C1146       C  0.99829659  0.29034939  0.40229501    -0.04300
C1147       C  0.02482974  0.32033085  0.40876163     0.02900
C1148       C  0.03960662  0.32124372  0.42469552    -0.03900
C1149       C  0.02819257  0.28969426  0.43248721    -0.00100
C1150       C  0.00017895  0.26092263  0.42658336    -0.02700
C1151       C  0.98490980  0.28971282  0.38587017     0.36600
C1152       C  0.04368024  0.28592466  0.44729412     0.40200
C1153       C  0.03797747  0.34855454  0.39778040     0.39300
C1154       C  0.98628613  0.23082309  0.43634463     0.36200
C1155       C  0.00340613  0.21682123  0.39807720     0.36900
C1156       C  0.86700146  0.17490353  0.39990636     0.40200
N1157       N  0.04802778  0.37003139  0.38830190    -0.37900
N1158       N  0.97474715  0.28970115  0.37269226    -0.39500
N1159       N  0.05528015  0.28101541  0.45882920    -0.37200
N1160       N  0.97508510  0.20687272  0.44409160    -0.39600
N1161       N  0.90472560  0.25277659  0.41904910    -0.39400
N1162       N  0.83976194  0.16759687  0.40105365    -0.37000
N1163       N  0.96349608  0.13169536  0.40047936    -0.38100
N1164       N  0.03095558  0.22502628  0.39766615    -0.39700
C1165       C  0.58745694  0.64203639  0.42926495    -0.04700
C1166       C  0.58461177  0.64627694  0.41198003     0.09500
C1167       C  0.61158671  0.67313792  0.40413446    -0.02100
C1168       C  0.63885453  0.69743162  0.41356906    -0.00300
C1169       C  0.64274330  0.69397997  0.43136044    -0.03900
C1170       C  0.61696239  0.66319470  0.43834804     0.03100
C1171       C  0.55283879  0.62375480  0.40214430     0.09900
C1172       C  0.61082351  0.67625534  0.38602310     0.35800
C1173       C  0.62022762  0.64950938  0.45388935     0.39200
C1174       C  0.53381231  0.63624222  0.39569961    -0.04300
C1175       C  0.50389436  0.61595730  0.38696197     0.02900
C1176       C  0.49366589  0.58264632  0.38198963    -0.03900
C1177       C  0.51174932  0.56970358  0.39009359    -0.00100
C1178       C  0.54093618  0.59001392  0.39961931    -0.02700
C1179       C  0.54456420  0.67053895  0.39847266     0.36600
C1180       C  0.50145722  0.53539377  0.38829294     0.40200
C1181       C  0.48258391  0.62947136  0.38576514     0.39300
C1182       C  0.55977195  0.57627719  0.40619952     0.36200
C1183       C  0.55932205  0.61574405  0.43796364     0.36900
C1184       C  0.66163612  0.72650662  0.40426519     0.40200
N1185       N  0.46634898  0.64113115  0.38531777    -0.37900
N1186       N  0.55283702  0.69785643  0.40025270    -0.39500
N1187       N  0.49392911  0.50815751  0.38716291    -0.37200
N1188       N  0.57476053  0.56529815  0.41148857    -0.39600
N1189       N  0.61015090  0.67872394  0.37161003    -0.39400
N1190       N  0.67800448  0.74845718  0.39558051    -0.37000
N1191       N  0.62110559  0.63602412  0.46578954    -0.38100
N1192       N  0.53682133  0.59487278  0.44487549    -0.39700
C1193       C  0.74329815  0.70876952  0.42384702    -0.04700
C1194       C  0.76848875  0.74012325  0.41899964     0.09500
C1195       C  0.76112095  0.76521648  0.41797467    -0.02100
C1196       C  0.73027270  0.76030157  0.42359240    -0.00300
C1197       C  0.70542321  0.72939079  0.43071910    -0.03900
C1198       C  0.71207551  0.70302703  0.42903256     0.03100
C1199       C  0.80137107  0.74556951  0.41295500     0.09900
C1200       C  0.78558847  0.79651063  0.41086267     0.35800
C1201       C  0.68820716  0.66963526  0.43376207     0.39200
C1202       C  0.80391944  0.73515496  0.39687151    -0.04300
C1203       C  0.83386814  0.73866358  0.39134719     0.02900
C1204       C  0.86453540  0.76138597  0.39949587    -0.03900
C1205       C  0.86054403  0.76617218  0.41687849    -0.00100
C1206       C  0.82914411  0.75777162  0.42351341    -0.02700
C1207       C  0.77511985  0.71921692  0.38617771     0.36600
C1208       C  0.88802384  0.77943876  0.42836945     0.40200
C1209       C  0.83088160  0.71490309  0.37893251     0.39300
C1210       C  0.82573737  0.76103884  0.44133613     0.36200
C1211       C  0.74989288  0.68210663  0.42374436     0.36900
C1212       C  0.72518467  0.78740277  0.42074167     0.40200
N1213       N  0.82743991  0.69534709  0.36918005    -0.37900
N1214       N  0.75218548  0.70654693  0.37766101    -0.39500
N1215       N  0.90894284  0.78939051  0.43815313    -0.37200
N1216       N  0.82449387  0.76341355  0.45572280    -0.39600
N1217       N  0.80466622  0.82149300  0.40508088    -0.39400
N1218       N  0.72273369  0.80975880  0.41745914    -0.37000
N1219       N  0.67080206  0.64234699  0.43714284    -0.38100
N1220       N  0.75517728  0.66090677  0.42360450    -0.39700
C1221       C  0.59822694  0.91164600  0.41111261    -0.04700
C1222       C  0.58500469  0.93219833  0.41281339     0.09500
C1223       C  0.60035528  0.95752992  0.42497554    -0.02100
C1224       C  0.63061897  0.96470478  0.43274353    -0.00300
C1225       C  0.64184447  0.94166054  0.43208914    -0.03900
C1226       C  0.61977122  0.91203471  0.42335595     0.03100
C1227       C  0.55384430  0.92466717  0.40299041     0.09900
C1228       C  0.58470937  0.97549917  0.43011358     0.35800
C1229       C  0.61024424  0.88007623  0.43008641     0.39200
C1230       C  0.52697240  0.89227436  0.40200254    -0.04300
C1231       C  0.50117016  0.88311335  0.39017647     0.02900
C1232       C  0.49636875  0.90751974  0.38175620    -0.03900
C1233       C  0.52038237  0.94073709  0.38621855    -0.00100
C1234       C  0.55040189  0.94878946  0.39445052    -0.02700
C1235       C  0.52471004  0.86821492  0.41408398     0.36600
C1236       C  0.51601740  0.96780980  0.38184345     0.40200
C1237       C  0.47830307  0.84799733  0.38898919     0.39300
C1238       C  0.57825958  0.98195131  0.39329316     0.36200
C1239       C  0.58872377  0.88856530  0.39736582     0.36900
C1240       C  0.64962096  0.99620490  0.44087952     0.40200
N1241       N  0.46070156  0.81987079  0.38861507    -0.37900
N1242       N  0.52276885  0.84909301  0.42371769    -0.39500
N1243       N  0.51460367  0.99086310  0.37888222    -0.37200
N1244       N  0.60049302  0.00837940  0.39221825    -0.39600
N1245       N  0.57214526  0.98970724  0.43436512    -0.39400
N1246       N  0.66395612  0.02173503  0.44712879    -0.37000
N1247       N  0.60139561  0.85426342  0.43549094    -0.38100
N1248       N  0.58125687  0.87017668  0.38638942    -0.39700
C1249       C  0.66721016  0.86336424  0.45514327    -0.04700
C1250       C  0.67134244  0.85001758  0.44024985     0.09500
C1251       C  0.67780600  0.86846843  0.42543596    -0.02100
C1252       C  0.67868884  0.89899212  0.42537586    -0.00300
C1253       C  0.67599448  0.91405590  0.44067675    -0.03900
C1254       C  0.67314606  0.89587479  0.45571904     0.03100
C1255       C  0.67110565  0.81765249  0.44071461     0.09900
C1256       C  0.68319423  0.85566229  0.41001384     0.35800
C1257       C  0.68087195  0.91029586  0.47217273     0.39200
C1258       C  0.64511538  0.78857239  0.43388885    -0.04300
C1259       C  0.64332430  0.75784377  0.43604503     0.02900
C1260       C  0.67006158  0.75551912  0.44320168    -0.03900
C1261       C  0.69291944  0.78452161  0.45247937    -0.00100
C1262       C  0.69477766  0.81514612  0.45013472    -0.02700
C1263       C  0.61903425  0.78995826  0.42515856     0.36600
C1264       C  0.71143890  0.78356767  0.46658505     0.40200
C1265       C  0.61081380  0.72932234  0.43426656     0.39300
C1266       C  0.72190437  0.84475871  0.45736119     0.36200
C1267       C  0.65729909  0.84344872  0.47028967     0.36900
C1268       C  0.68137339  0.91370864  0.40906471     0.40200
N1269       N  0.58419662  0.70733986  0.43341305    -0.37900
N1270       N  0.59833090  0.79095157  0.41804887    -0.39500
N1271       N  0.72560214  0.78500601  0.47867338    -0.37200
N1272       N  0.74345840  0.86839544  0.46306620    -0.39600
N1273       N  0.68741965  0.84541473  0.39770912    -0.39400
N1274       N  0.68339361  0.92432487  0.39576008    -0.37000
N1275       N  0.68749815  0.91983648  0.48576713    -0.38100
N1276       N  0.64930973  0.82752648  0.48230710    -0.39700
C1277       C  0.82632780  0.07515288  0.41593923    -0.04700
C1278       C  0.79816102  0.05414865  0.40616456     0.09500
C1279       C  0.79873388  0.06302513  0.38929248    -0.02100
C1280       C  0.82326178  0.09394556  0.38375669    -0.00300
C1281       C  0.85551367  0.10897908  0.39072444    -0.03900
C1282       C  0.85566530  0.10055433  0.40806690     0.03100
C1283       C  0.76704928  0.02511941  0.41351204     0.09900
C1284       C  0.77408889  0.04110785  0.37742699     0.35800
C1285       C  0.88499849  0.11720015  0.41820729     0.39200
C1286       C  0.73595295  0.02148047  0.41051139    -0.04300
C1287       C  0.70673789  0.99288663  0.41556444     0.02900
C1288       C  0.70727649  0.97236212  0.42861819    -0.03900
C1289       C  0.73924378  0.97684373  0.43197072    -0.00100
C1290       C  0.76769371  0.00051510  0.42312647    -0.02700
C1291       C  0.73354024  0.04834969  0.40345941     0.36600
C1292       C  0.74438686  0.95902072  0.44520588     0.40200
C1293       C  0.67830114  0.98420468  0.40532333     0.39300
C1294       C  0.79768912  0.99954679  0.42430544     0.36200
C1295       C  0.82548971  0.07065247  0.43396196     0.36900
C1296       C  0.81192997  0.11236766  0.37439210     0.40200
N1297       N  0.65692914  0.97823711  0.39625617    -0.37900
N1298       N  0.73154379  0.06979218  0.39798053    -0.39500
N1299       N  0.74984816  0.94563248  0.45567198    -0.37200
N1300       N  0.82124680  0.99816695  0.42549412    -0.39600
N1301       N  0.75460427  0.02356429  0.36790318    -0.39400
N1302       N  0.80241977  0.12708939  0.36730806    -0.37000
N1303       N  0.90752467  0.12992801  0.42699475    -0.38100
N1304       N  0.82495034  0.06707892  0.44834311    -0.39700
C1305       C  0.31825204  0.64691782  0.26374220    -0.04700
C1306       C  0.34511124  0.67215143  0.25497109     0.09500
C1307       C  0.37309726  0.69388120  0.26433826    -0.02100
C1308       C  0.37459796  0.68953117  0.28189658    -0.00300
C1309       C  0.34545459  0.66927984  0.29153970    -0.03900
C1310       C  0.31728871  0.64623289  0.28158419     0.03100
C1311       C  0.34450233  0.67398798  0.23586773     0.09900
C1312       C  0.40011102  0.72212580  0.25607625     0.35800
C1313       C  0.28801499  0.61842593  0.28873271     0.39200
C1314       C  0.31817039  0.67349394  0.22747486    -0.04300
C1315       C  0.31293422  0.66565964  0.21019499     0.02900
C1316       C  0.33990543  0.67196294  0.19929129    -0.03900
C1317       C  0.36882473  0.67711303  0.20819531    -0.00100
C1318       C  0.36860453  0.67325024  0.22587053    -0.02700
C1319       C  0.29504091  0.67896675  0.23674717     0.36600
C1320       C  0.39983477  0.68703778  0.20000531     0.40200
C1321       C  0.27878097  0.64458849  0.20574178     0.39300
C1322       C  0.39301006  0.66773069  0.23366559     0.36200
C1323       C  0.29184286  0.62027757  0.25425351     0.36900
C1324       C  0.40677679  0.70722280  0.28946237     0.40200
N1325       N  0.25115671  0.62702599  0.20303964    -0.37900
N1326       N  0.27669967  0.68350713  0.24411039    -0.39500
N1327       N  0.42565055  0.69503060  0.19477916    -0.37200
N1328       N  0.41235003  0.66320965  0.23988675    -0.39600
N1329       N  0.42150162  0.74479056  0.24953813    -0.39400
N1330       N  0.43371301  0.72179720  0.29398379    -0.37000
N1331       N  0.26429582  0.59565409  0.29365112    -0.38100
N1332       N  0.27085556  0.59910560  0.24672659    -0.39700
C1333       C  0.45486418  0.49334924  0.17065542    -0.04700
C1334       C  0.47350034  0.51969560  0.18177468     0.09500
C1335       C  0.48780351  0.55156454  0.17534233    -0.02100
C1336       C  0.48088354  0.55739434  0.15880179    -0.00300
C1337       C  0.45732389  0.53109491  0.14812681    -0.03900
C1338       C  0.44859679  0.49889469  0.15380118     0.03100
C1339       C  0.48256454  0.51431381  0.19936159     0.09900
C1340       C  0.51019379  0.57891549  0.18591850     0.35800
C1341       C  0.43701792  0.47156556  0.14235101     0.39200
C1342       C  0.50495224  0.50366733  0.20118145    -0.04300
C1343       C  0.51603828  0.50070350  0.21723636     0.02900
C1344       C  0.50488570  0.50820477  0.23267003    -0.03900
C1345       C  0.48169654  0.51897383  0.23036949    -0.00100
C1346       C  0.47176375  0.52278651  0.21401770    -0.02700
C1347       C  0.51841030  0.49758075  0.18609755     0.36600
C1348       C  0.46513769  0.52415920  0.24427837     0.40200
C1349       C  0.54142207  0.49237590  0.21691559     0.39300
C1350       C  0.45038262  0.53609538  0.21242707     0.36200
C1351       C  0.44136168  0.46010603  0.17674559     0.36900
C1352       C  0.50069297  0.59097670  0.15318874     0.40200
N1353       N  0.56193231  0.48642985  0.21478212    -0.37900
N1354       N  0.52910137  0.49287755  0.17408055    -0.39500
N1355       N  0.45064008  0.52809773  0.25480188    -0.37200
N1356       N  0.43376133  0.54728713  0.21182756    -0.39600
N1357       N  0.52788082  0.60085905  0.19425205    -0.39400
N1358       N  0.51876641  0.61813406  0.14977108    -0.37000
N1359       N  0.42852887  0.44929548  0.13353641    -0.38100
N1360       N  0.43053257  0.43359897  0.18162165    -0.39700
C1361       C  0.40692228  0.57849161  0.16362567    -0.04700
C1362       C  0.38878738  0.58732899  0.15336806     0.09500
C1363       C  0.38175549  0.57526828  0.13680799    -0.02100
C1364       C  0.39672699  0.55847040  0.12996302    -0.00300
C1365       C  0.41651612  0.55042663  0.14026724    -0.03900
C1366       C  0.41515376  0.55582533  0.15790542     0.03100
C1367       C  0.37702372  0.60881981  0.16033908     0.09900
C1368       C  0.36033818  0.58146297  0.12647811     0.35800
C1369       C  0.41184779  0.53250606  0.17050460     0.39200
C1370       C  0.38995340  0.64080266  0.15422562    -0.04300
C1371       C  0.38270202  0.66258894  0.16229257     0.02900
C1372       C  0.35533768  0.65065475  0.17372405    -0.03900
C1373       C  0.34409242  0.61863739  0.18069751    -0.00100
C1374       C  0.35528312  0.59837020  0.17415716    -0.02700
C1375       C  0.41082021  0.65192090  0.13942155     0.36600
C1376       C  0.31855535  0.60445118  0.19342646     0.40200
C1377       C  0.40742132  0.69702480  0.16026614     0.39300
C1378       C  0.34179411  0.56528460  0.18059036     0.36200
C1379       C  0.41721752  0.59251401  0.18026968     0.36900
C1380       C  0.39089225  0.55013687  0.11236211     0.40200
N1381       N  0.42807214  0.72408206  0.15856565    -0.37900
N1382       N  0.42667054  0.66133182  0.12737615    -0.39500
N1383       N  0.29834679  0.59211070  0.20358545    -0.37200
N1384       N  0.33116726  0.53898612  0.18573727    -0.39600
N1385       N  0.34358634  0.58636791  0.11797206    -0.39400
N1386       N  0.38408103  0.54404802  0.09836265    -0.37000
N1387       N  0.40667485  0.51341477  0.18086269    -0.38100
N1388       N  0.42559332  0.60394378  0.19345853    -0.39700
C1389       C  0.05101973  0.51454855  0.17424575    -0.04700
C1390       C  0.06063419  0.54192853  0.18469323     0.09500
C1391       C  0.08043825  0.57320505  0.17791672    -0.02100
C1392       C  0.09082474  0.57748161  0.16092355    -0.00300
C1393       C  0.08152951  0.54993293  0.14962992    -0.03900
C1394       C  0.06056779  0.51807969  0.15702685     0.03100
C1395       C  0.04797974  0.53739034  0.20262905     0.09900
C1396       C  0.09025597  0.60145143  0.18865936     0.35800
C1397       C  0.04986334  0.48776954  0.14811302     0.39200
C1398       C  0.06795200  0.54112692  0.21649463    -0.04300
C1399       C  0.05434772  0.53113873  0.23296254     0.02900
C1400       C  0.01949371  0.51667203  0.23606828    -0.03900
C1401       C  0.00018154  0.51017810  0.22099010    -0.00100
C1402       C  0.01448765  0.52452651  0.20540721    -0.02700
C1403       C  0.10265075  0.55383774  0.21357645     0.36600
C1404       C  0.96794097  0.48134203  0.21913828     0.40200
C1405       C  0.07597837  0.52965900  0.24530233     0.39300
C1406       C  0.99376981  0.52226131  0.19140696     0.36200
C1407       C  0.03186489  0.48205279  0.18162696     0.36900
C1408       C  0.11050520  0.61130600  0.15535587     0.40200
N1409       N  0.09383594  0.52833817  0.25469758    -0.37900
N1410       N  0.13031645  0.56408180  0.21123174    -0.39500
N1411       N  0.94328453  0.45781899  0.21602991    -0.37200
N1412       N  0.97722703  0.52024005  0.18027480    -0.39600
N1413       N  0.09827421  0.62391180  0.19725426    -0.39400
N1414       N  0.12558188  0.63872829  0.15169498    -0.37000
N1415       N  0.04064468  0.46237542  0.14207608    -0.38100
N1416       N  0.01670454  0.45624062  0.18753736    -0.39700
C1417       C  0.19341798  0.62565475  0.13862934    -0.04700
C1418       C  0.20064568  0.61280129  0.15276499     0.09500
C1419       C  0.17617540  0.58285645  0.15938251    -0.02100
C1420       C  0.14693120  0.56348245  0.15046804    -0.00300
C1421       C  0.13674874  0.57705793  0.13717949    -0.03900
C1422       C  0.16121939  0.60967524  0.13178617     0.03100
C1423       C  0.23520960  0.62776860  0.15922477     0.09900
C1424       C  0.18203890  0.57096617  0.17503016     0.35800
C1425       C  0.15489644  0.62896459  0.12006066     0.39200
C1426       C  0.25127220  0.65828782  0.16727301    -0.04300
C1427       C  0.28383170  0.67179162  0.17333098     0.02900
C1428       C  0.30149493  0.65448891  0.17185824    -0.03900
C1429       C  0.28465930  0.62428177  0.16227240    -0.00100
C1430       C  0.25182020  0.61077500  0.15701550    -0.02700
C1431       C  0.23340585  0.67516778  0.17006978     0.36600
C1432       C  0.30005972  0.60768749  0.15490365     0.40200
C1433       C  0.29767786  0.70302857  0.18193811     0.39300
C1434       C  0.23504068  0.57884658  0.14874435     0.36200
C1435       C  0.21943535  0.65566369  0.13107549     0.36900
C1436       C  0.12893405  0.52885738  0.15467825     0.40200
N1437       N  0.30723574  0.72778331  0.18874840    -0.37900
N1438       N  0.21907752  0.68851622  0.17229107    -0.39500
N1439       N  0.30937878  0.59276244  0.14783758    -0.37200
N1440       N  0.22223506  0.55323316  0.14254624    -0.39600
N1441       N  0.18672841  0.56152703  0.18747351    -0.39400
N1442       N  0.11636031  0.50145639  0.15830799    -0.37000
N1443       N  0.15176772  0.64643798  0.11119080    -0.38100
N1444       N  0.24017664  0.67952851  0.12505571    -0.39700
C1445       C  0.46421790  0.91926080  0.17560751    -0.04700
C1446       C  0.47138464  0.95118871  0.17847461     0.09500
C1447       C  0.46995067  0.96907938  0.16466363    -0.02100
C1448       C  0.46345868  0.95542525  0.14805041    -0.00300
C1449       C  0.45449113  0.92188299  0.14523566    -0.03900
C1450       C  0.44898728  0.90357223  0.16059545     0.03100
C1451       C  0.47696526  0.96351541  0.19647311     0.09900
C1452       C  0.47541859  0.00155480  0.16757877     0.35800
C1453       C  0.41895002  0.87267124  0.16360297     0.39200
C1454       C  0.50875291  0.98101656  0.20303421    -0.04300
C1455       C  0.51438665  0.98873678  0.22048591     0.02900
C1456       C  0.48759413  0.98049844  0.23214819    -0.03900
C1457       C  0.45549971  0.95843542  0.22524851    -0.00100
C1458       C  0.45046088  0.95134257  0.20778838    -0.02700
C1459       C  0.53615721  0.99090947  0.19153557     0.36600
C1460       C  0.42677548  0.94128235  0.23589706     0.40200
C1461       C  0.54831107  0.00317504  0.22529240     0.39300
C1462       C  0.41742872  0.93061114  0.20133984     0.36200
C1463       C  0.46777037  0.90087200  0.18913466     0.36900
C1464       C  0.46586051  0.97632766  0.13424802     0.40200
N1465       N  0.57608563  0.01361739  0.22737521    -0.37900
N1466       N  0.55804607  0.99882674  0.18246673    -0.39500
N1467       N  0.40287138  0.92560836  0.24349336    -0.37200
N1468       N  0.39116184  0.91399248  0.19618654    -0.39600
N1469       N  0.47953133  0.02739264  0.16998388    -0.39400
N1470       N  0.46794884  0.99380594  0.12358386    -0.37000
N1471       N  0.39439616  0.84925673  0.16701273    -0.38100
N1472       N  0.47127111  0.88710745  0.20014019    -0.39700
C1473       C  0.39161225  0.76731843  0.17045056    -0.04700
C1474       C  0.38969965  0.76881021  0.15290215     0.09500
C1475       C  0.37229784  0.73960284  0.14387128    -0.02100
C1476       C  0.35562662  0.70902357  0.15219893    -0.00300
C1477       C  0.35688211  0.70635275  0.17029134    -0.03900
C1478       C  0.37487436  0.73704013  0.17918548     0.03100
C1479       C  0.40478673  0.80128934  0.14388181     0.09900
C1480       C  0.37275426  0.74109464  0.12561212     0.35800
C1481       C  0.37550743  0.73976847  0.19731338     0.39200
C1482       C  0.43892845  0.82243097  0.14332351    -0.04300
C1483       C  0.45258461  0.85507535  0.13760475     0.02900
C1484       C  0.43234092  0.86646735  0.13017621    -0.03900
C1485       C  0.39861685  0.84160792  0.12763622    -0.00100
C1486       C  0.38472931  0.81087823  0.13579079    -0.02700
C1487       C  0.46011151  0.81087705  0.14934446     0.36600
C1488       C  0.37780310  0.84477510  0.11570878     0.40200
C1489       C  0.48721226  0.87691150  0.14112602     0.39300
C1490       C  0.34923846  0.78955276  0.13652536     0.36200
C1491       C  0.41138472  0.79737988  0.17978846     0.36900
C1492       C  0.33946521  0.68079815  0.14121550     0.40200
N1493       N  0.51474818  0.89311936  0.14443817    -0.37900
N1494       N  0.47711222  0.80181904  0.15410847    -0.39500
N1495       N  0.36045898  0.84534178  0.10578014    -0.37200
N1496       N  0.32101246  0.77258863  0.13722283    -0.39600
N1497       N  0.37310394  0.74231716  0.11111027    -0.39400
N1498       N  0.32783907  0.66040141  0.13117147    -0.37000
N1499       N  0.37676611  0.74404963  0.21166193    -0.38100
N1500       N  0.42746115  0.82076028  0.18757618    -0.39700
C1501       C  0.31832160  0.89396507  0.08292634    -0.04700
C1502       C  0.34947372  0.92179582  0.08569113     0.09500
C1503       C  0.35517665  0.95198769  0.07931401    -0.02100
C1504       C  0.33101635  0.95384160  0.06953975    -0.00300
C1505       C  0.29809565  0.92586283  0.06749376    -0.03900
C1506       C  0.29220901  0.89673380  0.07621317     0.03100
C1507       C  0.37515118  0.91974219  0.09637489     0.09900
C1508       C  0.38603479  0.98163791  0.08307613     0.35800
C1509       C  0.25985720  0.87062944  0.08123154     0.39200
C1510       C  0.40557767  0.92709966  0.08960576    -0.04300
C1511       C  0.43051829  0.92815498  0.09993081     0.02900
C1512       C  0.42349460  0.91412496  0.11662818    -0.03900
C1513       C  0.39370143  0.91031819  0.12374485    -0.00100
C1514       C  0.37031007  0.91324215  0.11374636    -0.02700
C1515       C  0.41181097  0.93463139  0.07184892     0.36600
C1516       C  0.38623654  0.90427800  0.14143403     0.40200
C1517       C  0.46374161  0.94919540  0.09379298     0.39300
C1518       C  0.34068959  0.90926585  0.12141983     0.36200
C1519       C  0.31219445  0.86157396  0.08696288     0.36900
C1520       C  0.34039964  0.98553874  0.06226160     0.40200
N1521       N  0.48983232  0.96674678  0.08857305    -0.37900
N1522       N  0.41689290  0.94069009  0.05771139    -0.39500
N1523       N  0.37869783  0.90070250  0.15543480    -0.37200
N1524       N  0.31706954  0.90603089  0.12754117    -0.39600
N1525       N  0.41061798  0.00527844  0.08610749    -0.39400
N1526       N  0.34811483  0.01086518  0.05653458    -0.37000
N1527       N  0.23488399  0.84924189  0.08592055    -0.38100
N1528       N  0.30513422  0.83476421  0.08941220    -0.39700
C1529       C  0.28638706  0.00631582  0.08375496    -0.04700
C1530       C  0.27352774  0.02049004  0.07301312     0.09500
C1531       C  0.25672403  0.00330801  0.05859248    -0.02100
C1532       C  0.24938264  0.97091069  0.05611330    -0.00300
C1533       C  0.26706559  0.95834777  0.06474009    -0.03900
C1534       C  0.28190430  0.97504163  0.08023547     0.03100
C1535       C  0.26717205  0.04630302  0.07978476     0.09900
C1536       C  0.24332637  0.01737833  0.04725832     0.35800
C1537       C  0.28803772  0.95881249  0.09397309     0.39200
C1538       C  0.28333444  0.07863020  0.07370134    -0.04300
C1539       C  0.27494829  0.10164031  0.07975506     0.02900
C1540       C  0.25143981  0.09305090  0.09318831    -0.03900
C1541       C  0.23824129  0.06074895  0.10015543    -0.00100
C1542       C  0.24359755  0.03731334  0.09245883    -0.02700
C1543       C  0.30966781  0.08857198  0.06162105     0.36600
C1544       C  0.21782940  0.04964887  0.11504044     0.40200
C1545       C  0.29399679  0.13465600  0.07317464     0.39300
C1546       C  0.22314366  0.00301966  0.09715669     0.36200
C1547       C  0.30298632  0.02351995  0.09900543     0.36900
C1548       C  0.21658221  0.94906275  0.04993463     0.40200
N1549       N  0.30986789  0.16076136  0.06767025    -0.37900
N1550       N  0.33108293  0.09698761  0.05219122    -0.39500
N1551       N  0.20194046  0.03771799  0.12685853    -0.37200
N1552       N  0.20604568  0.97591686  0.10092758    -0.39600
N1553       N  0.23297630  0.02865299  0.03805908    -0.39400
N1554       N  0.18949243  0.93298231  0.04577600    -0.37000
N1555       N  0.29267466  0.94626161  0.10518731    -0.38100
N1556       N  0.31616118  0.03724357  0.11115559    -0.39700
C1557       C  0.08712404  0.66254667  0.07668018    -0.04700
C1558       C  0.06391892  0.63850202  0.08767928     0.09500
C1559       C  0.03362111  0.63699695  0.08945987    -0.02100
C1560       C  0.02957845  0.66253796  0.08326154    -0.00300
C1561       C  0.04889614  0.68248737  0.06930523    -0.03900
C1562       C  0.07854228  0.68151464  0.06636855     0.03100
C1563       C  0.07190730  0.61670811  0.09830031     0.09900
C1564       C  0.00657795  0.60980991  0.09830120     0.35800
C1565       C  0.10090707  0.69904110  0.05266202     0.39200
C1566       C  0.06646370  0.61403939  0.11576046    -0.04300
C1567       C  0.06748503  0.58923242  0.12491371     0.02900
C1568       C  0.08799630  0.57677765  0.11945196    -0.03900
C1569       C  0.09579142  0.58162657  0.10173706    -0.00100
C1570       C  0.08402520  0.59768519  0.09123785    -0.02700
C1571       C  0.05926438  0.63635571  0.12457122     0.36600
C1572       C  0.11730913  0.57227709  0.09383575     0.40200
C1573       C  0.04250083  0.57389964  0.13781750     0.39300
C1574       C  0.08439053  0.59437639  0.07315527     0.36200
C1575       C  0.12021626  0.66818196  0.07592956     0.36900
C1576       C  0.00996111  0.67065892  0.09392212     0.40200
N1577       N  0.02194801  0.56191210  0.14783744    -0.37900
N1578       N  0.05368629  0.65421222  0.13164729    -0.39500
N1579       N  0.13468300  0.56598824  0.08674938    -0.37200
N1580       N  0.08459078  0.59150883  0.05874757    -0.39600
N1581       N  0.98495944  0.58818514  0.10532879    -0.39400
N1582       N  0.99473268  0.67683904  0.10293931    -0.37000
N1583       N  0.11996464  0.71209919  0.04205417    -0.38100
N1584       N  0.14659971  0.67273921  0.07520657    -0.39700
C1585       C  0.12609459  0.78496546  0.07251659    -0.04700
C1586       C  0.13852755  0.80308442  0.05753946     0.09500
C1587       C  0.12016691  0.79005068  0.04282637    -0.02100
C1588       C  0.09184638  0.75821736  0.04266966    -0.00300
C1589       C  0.07554491  0.74137790  0.05802995    -0.03900
C1590       C  0.09471539  0.75564960  0.07301873     0.03100
C1591       C  0.17171227  0.83493356  0.05710007     0.09900
C1592       C  0.13114466  0.80903218  0.02740929     0.35800
C1593       C  0.08240023  0.74140068  0.08945065     0.39200
C1594       C  0.19874291  0.83718726  0.04836936    -0.04300
C1595       C  0.22983411  0.86692989  0.04810687     0.02900
C1596       C  0.23565646  0.89514061  0.05762414    -0.03900
C1597       C  0.20883459  0.88995835  0.06827474    -0.00100
C1598       C  0.17689266  0.86228078  0.06638613    -0.02700
C1599       C  0.19470249  0.80836485  0.03985034     0.36600
C1600       C  0.21370560  0.90886797  0.08332500     0.40200
C1601       C  0.25594576  0.86694944  0.03867740     0.39300
C1602       C  0.14925003  0.86181183  0.07454282     0.36200
C1603       C  0.14567213  0.79673678  0.08767588     0.36900
C1604       C  0.08457522  0.74221383  0.02647455     0.40200
N1605       N  0.27553405  0.86507623  0.03090983    -0.37900
N1606       N  0.19136058  0.78533832  0.03306392    -0.39500
N1607       N  0.21551315  0.92176022  0.09591604    -0.37200
N1608       N  0.12753564  0.86199626  0.08105841    -0.39600
N1609       N  0.13950495  0.82384878  0.01503586    -0.39400
N1610       N  0.08028395  0.73009035  0.01341970    -0.37000
N1611       N  0.07385211  0.73143999  0.10289552    -0.38100
N1612       N  0.16114523  0.80612601  0.09979592    -0.39700
C1613       C  0.94968794  0.68323140  0.06876745    -0.04700
C1614       C  0.95262401  0.71201826  0.07514236     0.09500
C1615       C  0.98403636  0.73890257  0.07824482    -0.02100
C1616       C  0.01280230  0.73842820  0.07363859    -0.00300
C1617       C  0.01094954  0.70907523  0.06710387    -0.03900
C1618       C  0.97783365  0.68093639  0.06568522     0.03100
C1619       C  0.92238512  0.71365762  0.07918948     0.09900
C1620       C  0.98671057  0.76792537  0.08591982     0.35800
C1621       C  0.97158277  0.64851099  0.06137612     0.39200
C1622       C  0.90577980  0.70118366  0.09439777    -0.04300
C1623       C  0.87752750  0.70278355  0.09815408     0.02900
C1624       C  0.86999967  0.72412424  0.08881244    -0.03900
C1625       C  0.88141951  0.72858096  0.07177048    -0.00100
C1626       C  0.90816998  0.72442658  0.06726358    -0.02700
C1627       C  0.91724016  0.68577123  0.10605004     0.36600
C1628       C  0.86452123  0.73385735  0.05820648     0.40200
C1629       C  0.85462736  0.67849180  0.10989886     0.39300
C1630       C  0.92152035  0.73176602  0.05037506     0.36200
C1631       C  0.91711692  0.65561611  0.06522944     0.36900
C1632       C  0.04277135  0.76993393  0.07463233     0.40200
N1633       N  0.83648758  0.65830301  0.11899970    -0.37900
N1634       N  0.92647352  0.67358973  0.11534329    -0.39500
N1635       N  0.85140586  0.73653712  0.04662434    -0.37200
N1636       N  0.93222392  0.73766862  0.03692191    -0.39600
N1637       N  0.98929177  0.79113682  0.09211194    -0.39400
N1638       N  0.06519003  0.79627438  0.07556093    -0.37000
N1639       N  0.96533045  0.62210095  0.05838951    -0.38100
N1640       N  0.89119374  0.63374200  0.06228763    -0.39700
C1641       C  0.10950550  0.48810657  0.10690791    -0.04700
C1642       C  0.07945212  0.46976469  0.09855538     0.09500
C1643       C  0.05560182  0.47865005  0.10102870    -0.02100
C1644       C  0.06113743  0.50450869  0.11224573    -0.00300
C1645       C  0.09229951  0.52477430  0.12050523    -0.03900
C1646       C  0.11726647  0.51700400  0.11590515     0.03100
C1647       C  0.07323152  0.44088399  0.08738330     0.09900
C1648       C  0.02498234  0.46092700  0.09185942     0.35800
C1649       C  0.15223651  0.54015786  0.11708847     0.39200
C1650       C  0.05221412  0.40862208  0.09281797    -0.04300
C1651       C  0.04871537  0.38133320  0.08358550     0.02900
C1652       C  0.06471274  0.38514523  0.06738708    -0.03900
C1653       C  0.08832364  0.41858542  0.06308783    -0.00100
C1654       C  0.09127025  0.44560463  0.07247981    -0.02700
C1655       C  0.03565255  0.40351855  0.10889166     0.36600
C1656       C  0.10957940  0.42638859  0.04860157     0.40200
C1657       C  0.03281225  0.35078143  0.09295739     0.39300
C1658       C  0.11264940  0.47884236  0.06651301     0.36200
C1659       C  0.13346314  0.47776429  0.10564742     0.36900
C1660       C  0.03380813  0.50950052  0.11506047     0.40200
N1661       N  0.02065769  0.32736637  0.10116410    -0.37900
N1662       N  0.02248938  0.39921444  0.12168752    -0.39500
N1663       N  0.12723816  0.43464266  0.03722363    -0.37200
N1664       N  0.12953790  0.50534249  0.06172495    -0.39600
N1665       N  0.00064902  0.44678658  0.08447121    -0.39400
N1666       N  0.01111027  0.51217210  0.11694253    -0.37000
N1667       N  0.18033080  0.55813727  0.11715411    -0.38100
N1668       N  0.15240364  0.46939814  0.10464423    -0.39700
C1669       C  0.97080795  0.28208511  0.06397496    -0.04700
C1670       C  0.97460051  0.25784151  0.07167123     0.09500
C1671       C  0.00630068  0.26467618  0.07561369    -0.02100
C1672       C  0.03446046  0.29492833  0.07094056    -0.00300
C1673       C  0.03144077  0.32097500  0.06357758    -0.03900
C1674       C  0.99802879  0.31394106  0.06186786     0.03100
C1675       C  0.94505343  0.22733347  0.07837692     0.09900
C1676       C  0.00975848  0.24059447  0.08525877     0.35800
C1677       C  0.99031952  0.33951606  0.05955992     0.39200
C1678       C  0.93687420  0.19633632  0.07257031    -0.04300
C1679       C  0.91312315  0.16758468  0.08104540     0.02900
C1680       C  0.89353190  0.16861653  0.09472809    -0.03900
C1681       C  0.90146297  0.20152564  0.09952355    -0.00100
C1682       C  0.92725572  0.22982972  0.09168969    -0.02700
C1683       C  0.95362852  0.19426253  0.05773472     0.36600
C1684       C  0.88812583  0.20933728  0.11396737     0.40200
C1685       C  0.90969411  0.13738187  0.07480245     0.39300
C1686       C  0.93727732  0.26237088  0.09820413     0.36200
C1687       C  0.93811391  0.27465112  0.05922330     0.36900
C1688       C  0.06513929  0.29782405  0.07537261     0.40200
N1689       N  0.90910498  0.11524837  0.06840252    -0.37900
N1690       N  0.96690318  0.19273652  0.04588127    -0.39500
N1691       N  0.87968591  0.21818454  0.12539920    -0.37200
N1692       N  0.94500442  0.28802916  0.10344212    -0.39600
N1693       N  0.01239609  0.22151180  0.09301999    -0.39400
N1694       N  0.08758422  0.29677271  0.08007352    -0.37000
N1695       N  0.98207925  0.35851058  0.05845498    -0.38100
N1696       N  0.91201846  0.26863010  0.05555734    -0.39700
C1697       C  0.32016758  0.41935341  0.08430457    -0.04700
C1698       C  0.35037932  0.42270618  0.08838173     0.09500
C1699       C  0.35644032  0.39817416  0.08323387    -0.02100
C1700       C  0.33275350  0.37058324  0.07378331    -0.00300
C1701       C  0.30176425  0.36704784  0.06841944    -0.03900
C1702       C  0.29522254  0.39063429  0.07636939     0.03100
C1703       C  0.37427951  0.45062207  0.09960686     0.09900
C1704       C  0.38755536  0.40138129  0.08798202     0.35800
C1705       C  0.26259561  0.38374574  0.08043659     0.39200
C1706       C  0.36691320  0.45139324  0.11660064    -0.04300
C1707       C  0.38659340  0.47942184  0.12675400     0.02900
C1708       C  0.41649428  0.50745341  0.12057675    -0.03900
C1709       C  0.42120561  0.50658428  0.10252532    -0.00100
C1710       C  0.40198599  0.47787038  0.09282019    -0.02700
C1711       C  0.33854327  0.42258679  0.12372341     0.36600
C1712       C  0.43977441  0.53564649  0.09227162     0.40200
C1713       C  0.37367458  0.47831089  0.14332834     0.39300
C1714       C  0.40952883  0.47718438  0.07516908     0.36200
C1715       C  0.31390866  0.44508861  0.08935162     0.36900
C1716       C  0.34072297  0.34525458  0.07197361     0.40200
N1717       N  0.35986671  0.47417588  0.15590139    -0.37900
N1718       N  0.31600206  0.39956517  0.12932819    -0.39500
N1719       N  0.45290854  0.55766730  0.08318194    -0.37200
N1720       N  0.41594951  0.47700885  0.06117486    -0.39600
N1721       N  0.41239123  0.40410880  0.09170971    -0.39400
N1722       N  0.34982109  0.32685214  0.07236108    -0.37000
N1723       N  0.23733301  0.37946281  0.08458179    -0.38100
N1724       N  0.30895672  0.46553209  0.09340958    -0.39700
C1725       C  0.14495817  0.36026381  0.06946464    -0.04700
C1726       C  0.15557859  0.35264465  0.05451696     0.09500
C1727       C  0.13974106  0.35260130  0.03959635    -0.02100
C1728       C  0.11333741  0.35879752  0.03970130    -0.00300
C1729       C  0.09683370  0.35845864  0.05511027    -0.03900
C1730       C  0.11670963  0.36378661  0.06982735     0.03100
C1731       C  0.18499392  0.34739890  0.05422147     0.09900
C1732       C  0.15110128  0.34662307  0.02380192     0.35800
C1733       C  0.10865749  0.37181123  0.08599193     0.39200
C1734       C  0.18254010  0.31852459  0.06055421    -0.04300
C1735       C  0.20982530  0.31351822  0.06038235     0.02900
C1736       C  0.24200019  0.33857105  0.05455431    -0.03900
C1737       C  0.24265981  0.36626271  0.04656790    -0.00100
C1738       C  0.21511712  0.37076379  0.04688754    -0.02700
C1739       C  0.15101279  0.29251785  0.06666003     0.36600
C1740       C  0.27233930  0.39245493  0.03895286     0.40200
C1741       C  0.20174292  0.28035904  0.06414841     0.39300
C1742       C  0.21830145  0.40068060  0.04018157     0.36200
C1743       C  0.16212119  0.36291960  0.08496686     0.36900
C1744       C  0.10705891  0.36925203  0.02375885     0.40200
N1745       N  0.19320842  0.25314370  0.06666488    -0.37900
N1746       N  0.12656381  0.27066199  0.07151392    -0.39500
N1747       N  0.29479734  0.41449702  0.03265303    -0.37200
N1748       N  0.22083079  0.42446208  0.03478856    -0.39600
N1749       N  0.16026904  0.34199726  0.01122397    -0.39400
N1750       N  0.10302797  0.37783905  0.01086962    -0.37000
N1751       N  0.10457770  0.37868352  0.09933663    -0.38100
N1752       N  0.17474645  0.36475181  0.09765159    -0.39700
C1753       C  0.27500114  0.25378334  0.06186390    -0.04700
C1754       C  0.25994020  0.24271002  0.07753399     0.09500
C1755       C  0.25314893  0.26329583  0.08720111    -0.02100
C1756       C  0.26004331  0.29426270  0.08091309    -0.00300
C1757       C  0.27152384  0.30442355  0.06399922    -0.03900
C1758       C  0.28270166  0.28470879  0.05565286     0.03100
C1759       C  0.25569325  0.21102990  0.08423293     0.09900
C1760       C  0.23791010  0.25204854  0.10354205     0.35800
C1761       C  0.31001391  0.29843387  0.04394543     0.39200
C1762       C  0.27822169  0.21171183  0.09593194    -0.04300
C1763       C  0.27869107  0.18277925  0.09988888     0.02900
C1764       C  0.25567284  0.15183807  0.09238381    -0.03900
C1765       C  0.23897909  0.15424159  0.07798738    -0.00100
C1766       C  0.23557332  0.18171713  0.07551331    -0.02700
C1767       C  0.30158839  0.24268677  0.10373887     0.36600
C1768       C  0.22735616  0.13004184  0.06476638     0.40200
C1769       C  0.30732676  0.18785066  0.10883968     0.39300
C1770       C  0.21193630  0.18019569  0.06345778     0.36200
C1771       C  0.28593296  0.23431298  0.05287558     0.36900
C1772       C  0.25399592  0.31447387  0.09218896     0.40200
N1773       N  0.33170576  0.19489865  0.11553532    -0.37900
N1774       N  0.32004682  0.26732289  0.11001367    -0.39500
N1775       N  0.21912937  0.11279374  0.05326461    -0.37200
N1776       N  0.19294189  0.17896480  0.05395582    -0.39600
N1777       N  0.22560101  0.24330637  0.11655625    -0.39400
N1778       N  0.24856834  0.32880514  0.10213274    -0.37000
N1779       N  0.33371114  0.30881648  0.03597760    -0.38100
N1780       N  0.29436711  0.21826768  0.04618367    -0.39700
C1781       C  0.49772348  0.62071689  0.10718808    -0.04700
C1782       C  0.51923477  0.61308401  0.09906873     0.09500
C1783       C  0.51777386  0.58356239  0.10321058    -0.02100
C1784       C  0.49378198  0.56090299  0.11459991    -0.00300
C1785       C  0.46949234  0.56671901  0.12195299    -0.03900
C1786       C  0.47472937  0.59908777  0.11920753     0.03100
C1787       C  0.54692601  0.63848227  0.08828687     0.09900
C1788       C  0.54070405  0.57606700  0.09524350     0.35800
C1789       C  0.46438007  0.61475093  0.13123048     0.39200
C1790       C  0.57886754  0.65529156  0.09476455    -0.04300
C1791       C  0.60576153  0.67831112  0.08489472     0.02900
C1792       C  0.60119117  0.68618472  0.06792017    -0.03900
C1793       C  0.56757761  0.67217730  0.06275743    -0.00100
C1794       C  0.54126662  0.64751650  0.07240443    -0.02700
C1795       C  0.58371615  0.64999426  0.11226959     0.36600
C1796       C  0.55913142  0.68333820  0.04770281     0.40200
C1797       C  0.63693183  0.69446241  0.09361194     0.39300
C1798       C  0.50802629  0.63155105  0.06595488     0.36200
C1799       C  0.50109060  0.65246907  0.10413558     0.36900
C1800       C  0.49370486  0.53087421  0.11779238     0.40200
N1801       N  0.66051430  0.70545410  0.10166731    -0.37900
N1802       N  0.58749779  0.64606280  0.12621805    -0.39500
N1803       N  0.55106824  0.69152372  0.03589874    -0.37200
N1804       N  0.48160972  0.61909398  0.06069675    -0.39600
N1805       N  0.55904357  0.57020461  0.08888765    -0.39400
N1806       N  0.49512694  0.50755070  0.11982214    -0.37000
N1807       N  0.45951870  0.62951890  0.14113595    -0.38100
N1808       N  0.50362415  0.67767001  0.10175547    -0.39700
C1809       C  0.76171234  0.69384563  0.07685729    -0.04700
C1810       C  0.75953469  0.71974735  0.06934065     0.09500
C1811       C  0.78922028  0.74839998  0.06544472    -0.02100
C1812       C  0.81871989  0.75528870  0.07344028    -0.00300
C1813       C  0.81967464  0.73149002  0.08445296    -0.03900
C1814       C  0.79251571  0.69905096  0.08245374     0.03100
C1815       C  0.72707684  0.71821016  0.06616268     0.09900
C1816       C  0.78923211  0.77072663  0.05297646     0.35800
C1817       C  0.79473268  0.67073397  0.08682863     0.39200
C1818       C  0.72124282  0.74269186  0.07261988    -0.04300
C1819       C  0.69060466  0.74082783  0.07016884     0.02900
C1820       C  0.66407939  0.71348795  0.06158378    -0.03900
C1821       C  0.66917236  0.68667940  0.05883073    -0.00100
C1822       C  0.70090393  0.69150008  0.05788048    -0.02700
C1823       C  0.74675440  0.77055162  0.08172819     0.36600
C1824       C  0.64417180  0.65362010  0.06326851     0.40200
C1825       C  0.68561001  0.76466210  0.07904809     0.39300
C1826       C  0.70559725  0.66783394  0.04872602     0.36200
C1827       C  0.73235398  0.66259564  0.08049152     0.36900
C1828       C  0.84786510  0.78595347  0.06865374     0.40200
N1829       N  0.68220305  0.78374496  0.08637120    -0.37900
N1830       N  0.76670915  0.79369215  0.08856977    -0.39500
N1831       N  0.62581068  0.62710826  0.06760399    -0.37200
N1832       N  0.70908515  0.64888278  0.04132603    -0.39600
N1833       N  0.78917498  0.78837936  0.04300881    -0.39400
N1834       N  0.87040785  0.81043932  0.06432145    -0.37000
N1835       N  0.79450715  0.64674826  0.08959774    -0.38100
N1836       N  0.70916038  0.63763039  0.08358265    -0.39700
C1837       C  0.59075000  0.92940025  0.09112952    -0.04700
C1838       C  0.56393548  0.92950372  0.08387438     0.09500
C1839       C  0.56711808  0.93962704  0.06700913    -0.02100
C1840       C  0.59586818  0.94772397  0.05733351    -0.00300
C1841       C  0.62241699  0.94445924  0.06417505    -0.03900
C1842       C  0.62071486  0.94216249  0.08225230     0.03100
C1843       C  0.53486657  0.92414803  0.09468112     0.09900
C1844       C  0.54137600  0.94395903  0.05992588     0.35800
C1845       C  0.64910016  0.96316342  0.09251470     0.39200
C1846       C  0.53903254  0.94594953  0.10776460    -0.04300
C1847       C  0.51269045  0.93974188  0.11881525     0.02900
C1848       C  0.47936638  0.91398522  0.11546931    -0.03900
C1849       C  0.47568316  0.89432166  0.10079685    -0.00100
C1850       C  0.50306765  0.89787609  0.09163025    -0.02700
C1851       C  0.57092914  0.97557183  0.10971522     0.36600
C1852       C  0.44377869  0.87107379  0.09393282     0.40200
C1853       C  0.52223342  0.95974634  0.13373391     0.39300
C1854       C  0.49839847  0.87432657  0.07869852     0.36200
C1855       C  0.58899536  0.91966417  0.10855185     0.36900
C1856       C  0.59956079  0.96651695  0.04236888     0.40200
N1857       N  0.53255155  0.97652051  0.14538509    -0.37900
N1858       N  0.59628995  0.99923574  0.11115135    -0.39500
N1859       N  0.41958890  0.85271530  0.08724942    -0.37200
N1860       N  0.49469298  0.85554692  0.06842053    -0.39600
N1861       N  0.52087789  0.94747094  0.05437099    -0.39400
N1862       N  0.60099322  0.98221778  0.03093470    -0.37000
N1863       N  0.67084776  0.98004014  0.10119578    -0.38100
N1864       N  0.58770990  0.91208998  0.12245397    -0.39700
C1865       C  0.63781302  0.85772628  0.06811380    -0.04700
C1866       C  0.63696353  0.84226508  0.05289504     0.09500
C1867       C  0.64190246  0.86011440  0.03805107    -0.02100
C1868       C  0.65119363  0.89376007  0.03844481    -0.00300
C1869       C  0.64847877  0.90944808  0.05350045    -0.03900
C1870       C  0.64388905  0.89045931  0.06858157     0.03100
C1871       C  0.63514065  0.80907226  0.05285881     0.09900
C1872       C  0.63902401  0.84413637  0.02207139     0.35800
C1873       C  0.65395140  0.90543452  0.08492115     0.39200
C1874       C  0.60850221  0.78142539  0.06037331    -0.04300
C1875       C  0.61054080  0.75352204  0.06447340     0.02900
C1876       C  0.63366298  0.74697797  0.05621032    -0.03900
C1877       C  0.66009010  0.77508995  0.04767871    -0.00100
C1878       C  0.66167416  0.80590311  0.04717321    -0.02700
C1879       C  0.57911728  0.78211389  0.06469748     0.36600
C1880       C  0.68655575  0.77327356  0.03951668     0.40200
C1881       C  0.59306053  0.73673931  0.07959913     0.39300
C1882       C  0.69109108  0.83457755  0.04085993     0.36200
C1883       C  0.63485052  0.84052045  0.08375158     0.36900
C1884       C  0.67026524  0.91223131  0.02399632     0.40200
N1885       N  0.57929033  0.72482795  0.09198142    -0.37900
N1886       N  0.55561673  0.78254833  0.06807567    -0.39500
N1887       N  0.70775112  0.77219510  0.03293161    -0.37200
N1888       N  0.71456527  0.85737789  0.03578803    -0.39600
N1889       N  0.63687752  0.83157811  0.00931455    -0.39400
N1890       N  0.68548502  0.92544901  0.01215824    -0.37000
N1891       N  0.66309245  0.91404544  0.09846057    -0.38100
N1892       N  0.63233931  0.82685578  0.09618643    -0.39700
C1893       C  0.72264844  0.03090894  0.07146503    -0.04700
C1894       C  0.74810360  0.02534218  0.07524988     0.09500
C1895       C  0.74314659  0.99374437  0.07348760    -0.02100
C1896       C  0.71334925  0.96776974  0.06693251    -0.00300
C1897       C  0.68627521  0.97246818  0.06300211    -0.03900
C1898       C  0.69239441  0.00535458  0.06537445     0.03100
C1899       C  0.77976483  0.05278957  0.08207535     0.09900
C1900       C  0.76981836  0.98835139  0.07771896     0.35800
C1901       C  0.66856490  0.01462516  0.06106264     0.39200
C1902       C  0.78618289  0.05323946  0.09913246    -0.04300
C1903       C  0.81571319  0.07848414  0.10594675     0.02900
C1904       C  0.83885708  0.10681377  0.09614753    -0.03900
C1905       C  0.83004859  0.10665898  0.07880485    -0.00100
C1906       C  0.80198213  0.07897246  0.07185237    -0.02700
C1907       C  0.76197495  0.02701467  0.10981857     0.36600
C1908       C  0.84681275  0.13482972  0.06782324     0.40200
C1909       C  0.82156344  0.07288811  0.12310164     0.39300
C1910       C  0.79532668  0.07758931  0.05400003     0.36200
C1911       C  0.72775899  0.06353739  0.07398339     0.36900
C1912       C  0.71460301  0.93914296  0.06184302     0.40200
N1913       N  0.82279768  0.06494014  0.13665286    -0.37900
N1914       N  0.74282398  0.00617927  0.11830442    -0.39500
N1915       N  0.85861205  0.15663017  0.05851724    -0.37200
N1916       N  0.79015200  0.07652602  0.03977145    -0.39600
N1917       N  0.79079748  0.98374206  0.08113669    -0.39400
N1918       N  0.71733387  0.91719654  0.05795420    -0.37000
N1919       N  0.65150397  0.02467992  0.05810038    -0.38100
N1920       N  0.73197617  0.08953316  0.07594371    -0.39700
C1921       C  0.08735164  0.57830284  0.76231450    -0.04700
C1922       C  0.08193466  0.60052579  0.75349764     0.09500
C1923       C  0.06201085  0.58981710  0.73918136    -0.02100
C1924       C  0.04663859  0.55668520  0.73425903    -0.00300
C1925       C  0.04553329  0.53254420  0.74552043    -0.03900
C1926       C  0.07282254  0.54582984  0.75667740     0.03100
C1927       C  0.10464045  0.63621015  0.75603940     0.09900
C1928       C  0.05958708  0.61354563  0.72873146     0.35800
C1929       C  0.09435360  0.53265106  0.75697398     0.39200
C1930       C  0.13470044  0.65205405  0.74719175    -0.04300
C1931       C  0.15557979  0.68612945  0.74846496     0.02900
C1932       C  0.14645747  0.70447813  0.75866607    -0.03900
C1933       C  0.11702428  0.68830417  0.76812161    -0.00100
C1934       C  0.09597871  0.65419119  0.76665463    -0.02700
C1935       C  0.14346865  0.63329389  0.73623899     0.36600
C1936       C  0.10852281  0.70668063  0.77947870     0.40200
C1937       C  0.18539645  0.70232578  0.73845677     0.39300
C1938       C  0.06502041  0.63762691  0.77565387     0.36200
C1939       C  0.11103034  0.58971869  0.77589185     0.36900
C1940       C  0.04130982  0.55118219  0.71637916     0.40200
N1941       N  0.20911693  0.71520561  0.73044766    -0.37900
N1942       N  0.15026471  0.61824798  0.72747980    -0.39500
N1943       N  0.10188651  0.72141950  0.78855606    -0.37200
N1944       N  0.04021535  0.62435492  0.78274875    -0.39600
N1945       N  0.05778678  0.63251162  0.72042524    -0.39400
N1946       N  0.03820173  0.54904158  0.70195064    -0.37000
N1947       N  0.11303848  0.52389389  0.75722236    -0.38100
N1948       N  0.12989738  0.59885585  0.78671094    -0.39700
C1949       C  0.08425294  0.39982432  0.74030152    -0.04700
C1950       C  0.08819709  0.42466409  0.75139461     0.09500
C1951       C  0.11387687  0.43768424  0.76319213    -0.02100
C1952       C  0.13652944  0.42700375  0.76338340    -0.00300
C1953       C  0.13430405  0.40414009  0.75133788    -0.03900
C1954       C  0.10772920  0.39016426  0.73993250     0.03100
C1955       C  0.06735294  0.43945355  0.74946024     0.09900
C1956       C  0.11732628  0.46235687  0.77505787     0.35800
C1957       C  0.10527791  0.36712957  0.72723951     0.39200
C1958       C  0.04122523  0.43128544  0.76046071    -0.04300
C1959       C  0.02202539  0.44590897  0.75861763     0.02900
C1960       C  0.03163620  0.47263761  0.74712471    -0.03900
C1961       C  0.05522395  0.47673357  0.73455703    -0.00100
C1962       C  0.07319237  0.46075283  0.73601433    -0.02700
C1963       C  0.03366583  0.40714907  0.77352890     0.36600
C1964       C  0.06190505  0.49699231  0.71982713     0.40200
C1965       C  0.99031059  0.42960348  0.76687600     0.39300
C1966       C  0.09881928  0.46715507  0.72389990     0.36200
C1967       C  0.05621806  0.38465312  0.72910888     0.36900
C1968       C  0.16154425  0.43896400  0.77631263     0.40200
N1969       N  0.96486468  0.41527558  0.77328333    -0.37900
N1970       N  0.02775106  0.38806733  0.78401171    -0.39500
N1971       N  0.06910037  0.51176821  0.70745131    -0.37200
N1972       N  0.11914434  0.47215769  0.71425700    -0.39600
N1973       N  0.12054990  0.48195946  0.78470586    -0.39400
N1974       N  0.18133621  0.44834601  0.78668954    -0.37000
N1975       N  0.10337794  0.34889854  0.71704997    -0.38100
N1976       N  0.03371994  0.37248563  0.72028504    -0.39700
C1977       C  0.54009998  0.87078473  0.73809011    -0.04700
C1978       C  0.55202962  0.89532050  0.75053486     0.09500
C1979       C  0.57231518  0.89553258  0.76345513    -0.02100
C1980       C  0.58132159  0.87161436  0.76371542    -0.00300
C1981       C  0.56872516  0.84657144  0.75149371    -0.03900
C1982       C  0.54764860  0.84587230  0.73884301     0.03100
C1983       C  0.54202442  0.92023934  0.75016640     0.09900
C1984       C  0.58354618  0.92006398  0.77657423     0.35800
C1985       C  0.53444567  0.82011250  0.72631385     0.39200
C1986       C  0.51007160  0.91112993  0.75464986    -0.04300
C1987       C  0.49799719  0.93197805  0.75110358     0.02900
C1988       C  0.52008771  0.96642242  0.74762261    -0.03900
C1989       C  0.55284110  0.97452500  0.74247909    -0.00100
C1990       C  0.56294638  0.95127388  0.74344141    -0.02700
C1991       C  0.48870698  0.87887432  0.76195717     0.36600
C1992       C  0.57833440  0.00700501  0.73717038     0.40200
C1993       C  0.46297878  0.91441974  0.74821051     0.39300
C1994       C  0.59586919  0.95979316  0.73831403     0.36200
C1995       C  0.52036994  0.87152992  0.72439952     0.36900
C1996       C  0.60307021  0.87249797  0.77674836     0.40200
N1997       N  0.43503837  0.89802086  0.74599010    -0.37900
N1998       N  0.47183576  0.85326116  0.76778826    -0.39500
N1999       N  0.60049288  0.03189889  0.73297710    -0.37200
N2000       N  0.62213367  0.96663064  0.73440034    -0.39600
N2001       N  0.59251969  0.93940847  0.78715558    -0.39400
N2002       N  0.62060332  0.87345064  0.78709336    -0.37000
N2003       N  0.52378694  0.79951434  0.71635255    -0.38100
N2004       N  0.50477012  0.87235728  0.71348966    -0.39700
C2005       C  0.35159710  0.89353757  0.74107700    -0.04700
C2006       C  0.36460624  0.92053454  0.75214298     0.09500
C2007       C  0.34348727  0.92502364  0.76278022    -0.02100
C2008       C  0.30976903  0.90137339  0.76323359    -0.00300
C2009       C  0.29706154  0.87344425  0.75280051    -0.03900
C2010       C  0.31795679  0.86983423  0.74155014     0.03100
C2011       C  0.40074150  0.94389669  0.75267327     0.09900
C2012       C  0.35648085  0.95434394  0.77297015     0.35800
C2013       C  0.30470789  0.84226503  0.73006133     0.39200
C2014       C  0.41614338  0.96628371  0.73965902    -0.04300
C2015       C  0.45069501  0.98405300  0.73824351     0.02900
C2016       C  0.47094001  0.97865182  0.74991312    -0.03900
C2017       C  0.45416650  0.96069725  0.76493957    -0.00100
C2018       C  0.41951997  0.94274068  0.76587405    -0.02700
C2019       C  0.39583395  0.97136935  0.72782106     0.36600
C2020       C  0.47132089  0.95590791  0.77870406     0.40200
C2021       C  0.46334435  0.00884651  0.72520674     0.39300
C2022       C  0.40294619  0.92065364  0.77986589     0.36200
C2023       C  0.37249242  0.89054475  0.72878772     0.36900
C2024       C  0.28844750  0.90522541  0.77488964     0.40200
N2025       N  0.47179512  0.02820134  0.71462666    -0.37900
N2026       N  0.37962615  0.97556899  0.71854246    -0.39500
N2027       N  0.48356548  0.95032668  0.78971461    -0.37200
N2028       N  0.38970135  0.90291494  0.79093305    -0.39600
N2029       N  0.36693125  0.97789179  0.78097797    -0.39400
N2030       N  0.27140162  0.90818509  0.78420302    -0.37000
N2031       N  0.29413792  0.82030861  0.72089995    -0.38100
N2032       N  0.38855897  0.88798446  0.71867156    -0.39700
C2033       C  0.49869949  0.55690498  0.75725545    -0.04700
C2034       C  0.51128867  0.57529962  0.74251833     0.09500
C2035       C  0.51217730  0.55973092  0.72782578    -0.02100
C2036       C  0.50553467  0.52718468  0.72832332    -0.00300
C2037       C  0.49882470  0.50970686  0.74404718    -0.03900
C2038       C  0.49001392  0.52375021  0.75768654     0.03100
C2039       C  0.52548922  0.61151049  0.74276620     0.09900
C2040       C  0.52046290  0.57779044  0.71206077     0.35800
C2041       C  0.47625877  0.50669912  0.77337761     0.39200
C2042       C  0.55964579  0.63250466  0.74077932    -0.04300
C2043       C  0.57401389  0.66635204  0.74321362     0.02900
C2044       C  0.55419081  0.67994340  0.74702183    -0.03900
C2045       C  0.51970902  0.65879410  0.74848132    -0.00100
C2046       C  0.50546514  0.62479581  0.74612945    -0.02700
C2047       C  0.58035334  0.61948331  0.73604194     0.36600
C2048       C  0.49873571  0.67140071  0.75325847     0.40200
C2049       C  0.60950211  0.68657392  0.74213506     0.39300
C2050       C  0.47011094  0.60330945  0.74729311     0.36200
C2051       C  0.49795741  0.57310498  0.77260271     0.36900
C2052       C  0.50226273  0.51257493  0.71200989     0.40200
N2053       N  0.63785313  0.70201035  0.74158838    -0.37900
N2054       N  0.59711971  0.60964912  0.73192972    -0.39500
N2055       N  0.48189678  0.68126264  0.75717744    -0.37200
N2056       N  0.44196540  0.58609780  0.74835134    -0.39600
N2057       N  0.52727101  0.59217516  0.69954988    -0.39400
N2058       N  0.49993405  0.50372265  0.69828284    -0.37000
N2059       N  0.46641098  0.49537687  0.78647209    -0.38100
N2060       N  0.49763769  0.58607914  0.78482224    -0.39700
C2061       C  0.34039736  0.39476144  0.76724088    -0.04700
C2062       C  0.36465957  0.42827647  0.76732464     0.09500
C2063       C  0.35553123  0.45207009  0.76874322    -0.02100
C2064       C  0.32225620  0.44272732  0.76719543    -0.00300
C2065       C  0.29797019  0.40915776  0.76542720    -0.03900
C2066       C  0.30713791  0.38522570  0.76723470     0.03100
C2067       C  0.39847835  0.43809791  0.76191720     0.09900
C2068       C  0.38074524  0.48631347  0.77050436     0.35800
C2069       C  0.28263580  0.35061327  0.76870320     0.39200
C2070       C  0.40695321  0.44650006  0.74500540    -0.04300
C2071       C  0.43679064  0.45122076  0.73875706     0.02900
C2072       C  0.46037225  0.45088295  0.74977567    -0.03900
C2073       C  0.44713334  0.43389998  0.76523402    -0.00100
C2074       C  0.41850503  0.43140039  0.77200965    -0.02700
C2075       C  0.38418988  0.44901817  0.73378016     0.36600
C2076       C  0.45166751  0.40720554  0.76996033     0.40200
C2077       C  0.43991705  0.45115332  0.72076867     0.39300
C2078       C  0.40880242  0.42009811  0.78913869     0.36200
C2079       C  0.34958216  0.37007349  0.76551113     0.36900
C2080       C  0.31373949  0.46791736  0.76622499     0.40200
N2081       N  0.43912005  0.44855753  0.70633184    -0.37900
N2082       N  0.36603827  0.45101019  0.72489757    -0.39500
N2083       N  0.45284873  0.38433828  0.77374689    -0.37200
N2084       N  0.40116960  0.41120978  0.80280899    -0.39600
N2085       N  0.40089601  0.51358689  0.77200719    -0.39400
N2086       N  0.30707769  0.48811555  0.76533995    -0.37000
N2087       N  0.26323336  0.32302581  0.76996121    -0.38100
N2088       N  0.35703238  0.35054149  0.76399235    -0.39700
C2089       C  0.12988900  0.27929965  0.81244702    -0.04700
C2090       C  0.15293841  0.29044296  0.82565381     0.09500
C2091       C  0.18582050  0.31480385  0.82261704    -0.02100
C2092       C  0.19513089  0.32993749  0.80681796    -0.00300
C2093       C  0.17169726  0.32017996  0.79382977    -0.03900
C2094       C  0.13929746  0.29409393  0.79649253     0.03100
C2095       C  0.14200466  0.27842362  0.84308635     0.09900
C2096       C  0.21012819  0.32448701  0.83576970     0.35800
C2097       C  0.11515990  0.28393017  0.78321799     0.39200
C2098       C  0.13571341  0.24756528  0.84794065    -0.04300
C2099       C  0.11980011  0.23410869  0.86328570     0.02900
C2100       C  0.12029424  0.25480775  0.87662438    -0.03900
C2101       C  0.12661261  0.28663179  0.87110909    -0.00100
C2102       C  0.13538492  0.29700239  0.85429169    -0.02700
C2103       C  0.14199804  0.22795521  0.83622616     0.36600
C2104       C  0.12658351  0.31070927  0.88233288     0.40200
C2105       C  0.09469746  0.20003396  0.86173533     0.39300
C2106       C  0.13881899  0.32764399  0.84854659     0.36200
C2107       C  0.09631016  0.25325855  0.81546133     0.36900
C2108       C  0.22889900  0.35589820  0.80404627     0.40200
N2109       N  0.07479296  0.17330924  0.85867029    -0.37900
N2110       N  0.14693570  0.21233096  0.82688669    -0.39500
N2111       N  0.12717996  0.33107979  0.89055021    -0.37200
N2112       N  0.14142724  0.35192118  0.84390109    -0.39600
N2113       N  0.23003863  0.33238700  0.84599809    -0.39400
N2114       N  0.25577881  0.37673944  0.80197619    -0.37000
N2115       N  0.09586294  0.27587204  0.77264627    -0.38100
N2116       N  0.06961242  0.23233420  0.81791231    -0.39700
C2117       C  0.67759123  0.81255493  0.81934592    -0.04700
C2118       C  0.66057550  0.82013404  0.83128151     0.09500
C2119       C  0.62996569  0.81638627  0.82727573    -0.02100
C2120       C  0.61672001  0.80599430  0.81113887    -0.00300
C2121       C  0.63431792  0.79955407  0.79883963    -0.03900
C2122       C  0.66453623  0.80226084  0.80314928     0.03100
C2123       C  0.67537475  0.83310365  0.84805422     0.09900
C2124       C  0.61253244  0.82404075  0.83972717     0.35800
C2125       C  0.68198625  0.79386243  0.79108726     0.39200
C2126       C  0.69610015  0.86668726  0.85029798    -0.04300
C2127       C  0.71049168  0.87936420  0.86604623     0.02900
C2128       C  0.70515008  0.85821930  0.88037136    -0.03900
C2129       C  0.68065753  0.82397442  0.87777583    -0.00100
C2130       C  0.66725512  0.81192632  0.86166847    -0.02700
C2131       C  0.70294272  0.88837010  0.83602263     0.36600
C2132       C  0.66665531  0.79928189  0.89064276     0.40200
C2133       C  0.73050031  0.91483982  0.86688639     0.39300
C2134       C  0.64490165  0.77700486  0.85883304     0.36200
C2135       C  0.70872014  0.81570306  0.82375858     0.36900
C2136       C  0.58564477  0.80339745  0.80713525     0.40200
N2137       N  0.74538346  0.94317586  0.86647595    -0.37900
N2138       N  0.70831415  0.90546404  0.82462025    -0.39500
N2139       N  0.65211537  0.77665215  0.89923714    -0.37200
N2140       N  0.62723735  0.74929834  0.85655685    -0.39600
N2141       N  0.59875103  0.83021508  0.84968738    -0.39400
N2142       N  0.56088280  0.80139781  0.80399136    -0.37000
N2143       N  0.69588541  0.78713762  0.78146820    -0.38100
N2144       N  0.73354225  0.81823287  0.82731128    -0.39700
C2145       C  0.17561273  0.87259351  0.85940711    -0.04700
C2146       C  0.15228435  0.85510382  0.84708131     0.09500
C2147       C  0.11919640  0.84373845  0.85011050    -0.02100
C2148       C  0.10903894  0.85002760  0.86554547    -0.00300
C2149       C  0.13222364  0.86779984  0.87894406    -0.03900
C2150       C  0.16601545  0.87772538  0.87539767     0.03100
C2151       C  0.16245631  0.84745570  0.83087677     0.09900
C2152       C  0.09534223  0.82517649  0.83709124     0.35800
C2153       C  0.19223755  0.89097299  0.88743966     0.39200
C2154       C  0.16759306  0.82083245  0.82983682    -0.04300
C2155       C  0.17505962  0.81220618  0.81431228     0.02900
C2156       C  0.17778757  0.83049153  0.79977380    -0.03900
C2157       C  0.17352194  0.85777014  0.80096743    -0.00100
C2158       C  0.16590415  0.86621118  0.81652634    -0.02700
C2159       C  0.16500632  0.80209117  0.84471516     0.36600
C2160       C  0.17766248  0.87768373  0.78633140     0.40200
C2161       C  0.17856462  0.78364671  0.81329126     0.39300
C2162       C  0.16167271  0.89426047  0.81788029     0.36200
C2163       C  0.21009318  0.88517405  0.85545697     0.36900
C2164       C  0.07381008  0.83613549  0.86746455     0.40200
N2165       N  0.18132334  0.76087452  0.81248621    -0.37900
N2166       N  0.16333306  0.78691881  0.85641461    -0.39500
N2167       N  0.18091903  0.89354173  0.77465542    -0.37200
N2168       N  0.15827269  0.91659593  0.81906090    -0.39600
N2169       N  0.07651408  0.81048071  0.82667540    -0.39400
N2170       N  0.04562706  0.82430971  0.86853846    -0.37000
N2171       N  0.21569501  0.90035615  0.89544139    -0.38100
N2172       N  0.23745491  0.89522541  0.85230995    -0.39700
C2173       C  0.21496751  0.34803424  0.63551199    -0.04700
C2174       C  0.19699245  0.33629590  0.65039335     0.09500
C2175       C  0.16931905  0.30483657  0.65079474    -0.02100
C2176       C  0.16215723  0.28389184  0.63705475    -0.00300
C2177       C  0.17430273  0.29689563  0.62051142    -0.03900
C2178       C  0.20347249  0.32937949  0.62053774     0.03100
C2179       C  0.20952619  0.35393188  0.66660112     0.09900
C2180       C  0.15017104  0.29261504  0.66618118     0.35800
C2181       C  0.22203063  0.34551882  0.60547956     0.39200
C2182       C  0.20010093  0.37605213  0.67213496    -0.04300
C2183       C  0.20257183  0.38424158  0.68928182     0.02900
C2184       C  0.21410282  0.36987249  0.70082083    -0.03900
C2185       C  0.22725895  0.35102329  0.69488984    -0.00100
C2186       C  0.22507320  0.34315775  0.67776666    -0.02700
C2187       C  0.18617174  0.38879152  0.66035235     0.36600
C2188       C  0.24274828  0.33947662  0.70642855     0.40200
C2189       C  0.19120197  0.40560887  0.69515521     0.39300
C2190       C  0.23671006  0.32208269  0.67174011     0.36200
C2191       C  0.24480638  0.38003473  0.63556683     0.36900
C2192       C  0.15025327  0.25027278  0.64197520     0.40200
N2193       N  0.18225750  0.42273515  0.69988120    -0.37900
N2194       N  0.17518228  0.39911432  0.65095646    -0.39500
N2195       N  0.25525795  0.33043045  0.71562409    -0.37200
N2196       N  0.24581783  0.30520274  0.66683827    -0.39600
N2197       N  0.13497953  0.28299579  0.67841632    -0.39400
N2198       N  0.14186176  0.22432581  0.64705786    -0.37000
N2199       N  0.23809244  0.36011790  0.59410065    -0.38100
N2200       N  0.26853518  0.40555306  0.63561662    -0.39700
C2201       C  0.72491100  0.85926225  0.66162818    -0.04700
C2202       C  0.69366231  0.83353139  0.65749056     0.09500
C2203       C  0.68687653  0.82192879  0.64102112    -0.02100
C2204       C  0.71100414  0.83748167  0.62833435    -0.00300
C2205       C  0.74430817  0.86303563  0.63230768    -0.03900
C2206       C  0.75070685  0.87044996  0.64998259     0.03100
C2207       C  0.66982850  0.81667349  0.67139027     0.09900
C2208       C  0.65448038  0.79449369  0.63710010     0.35800
C2209       C  0.78251411  0.88418040  0.65779271     0.39200
C2210       C  0.64828562  0.82733837  0.67621670    -0.04300
C2211       C  0.63325060  0.81893741  0.69213862     0.02900
C2212       C  0.64002830  0.80005322  0.70332292    -0.03900
C2213       C  0.66051713  0.78823031  0.69810660    -0.00100
C2214       C  0.67462224  0.79579386  0.68199922    -0.02700
C2215       C  0.64299809  0.84838931  0.66515967     0.36600
C2216       C  0.66833029  0.76939409  0.70942447     0.40200
C2217       C  0.61322875  0.83227993  0.69750349     0.39300
C2218       C  0.69565229  0.78361562  0.67658053     0.36200
C2219       C  0.73108615  0.87260341  0.67859500     0.36900
C2220       C  0.69971838  0.82803593  0.61122079     0.40200
N2221       N  0.59758310  0.84328830  0.70176502    -0.37900
N2222       N  0.63850797  0.86512604  0.65642812    -0.39500
N2223       N  0.67549898  0.75489427  0.71832148    -0.37200
N2224       N  0.71235774  0.77390435  0.67218317    -0.39600
N2225       N  0.62865340  0.77258055  0.63403505    -0.39400
N2226       N  0.68888043  0.81964989  0.59792255    -0.37000
N2227       N  0.80684697  0.89415412  0.66506115    -0.38100
N2228       N  0.73584866  0.88317804  0.69205224    -0.39700
C2229       C  0.17995393  0.85311625  0.68459787    -0.04700
C2230       C  0.16803431  0.82763373  0.67259255     0.09500
C2231       C  0.16182439  0.79637919  0.67736870    -0.02100
C2232       C  0.16592611  0.79020215  0.69420597    -0.00300
C2233       C  0.17703005  0.81552616  0.70622264    -0.03900
C2234       C  0.18407348  0.84698106  0.70136223     0.03100
C2235       C  0.16184071  0.83406375  0.65502216     0.09900
C2236       C  0.15196933  0.77087587  0.66486170     0.35800
C2237       C  0.19678294  0.87355088  0.71348346     0.39200
C2238       C  0.18813334  0.85526846  0.64477674    -0.04300
C2239       C  0.18263099  0.86748237  0.62979596     0.02900
C2240       C  0.15020603  0.86132921  0.62561630    -0.03900
C2241       C  0.12364916  0.83389185  0.63443430    -0.00100
C2242       C  0.12971758  0.82085445  0.64904650    -0.02700
C2243       C  0.22125676  0.86448233  0.64982469     0.36600
C2244       C  0.08934127  0.82127678  0.63059962     0.40200
C2245       C  0.21089577  0.88361099  0.61879831     0.39300
C2246       C  0.10247826  0.79665371  0.65917248     0.36200
C2247       C  0.18925969  0.88617095  0.67977133     0.36900
C2248       C  0.15762126  0.75751676  0.69926010     0.40200
N2249       N  0.23423819  0.89585659  0.61051441    -0.37900
N2250       N  0.24756900  0.87184607  0.65386955    -0.39500
N2251       N  0.06139013  0.80980321  0.62865457    -0.37200
N2252       N  0.08081849  0.77750082  0.66726442    -0.39600
N2253       N  0.14413104  0.75061230  0.65483703    -0.39400
N2254       N  0.15081040  0.73141302  0.70333672    -0.37000
N2255       N  0.20685202  0.89468327  0.72313879    -0.38100
N2256       N  0.19744847  0.91293753  0.67636304    -0.39700
C2257       C  0.04347766  0.15220598  0.90257314    -0.04700
C2258       C  0.05564881  0.13624774  0.89286884     0.09500
C2259       C  0.08982613  0.15214813  0.89027922    -0.02100
C2260       C  0.11006334  0.18623604  0.89349288    -0.00300
C2261       C  0.09584173  0.20523349  0.89876418    -0.03900
C2262       C  0.06375949  0.18585195  0.90642462     0.03100
C2263       C  0.03281813  0.10464382  0.88392037     0.09900
C2264       C  0.10373294  0.13452075  0.88223972     0.35800
C2265       C  0.05182693  0.19798543  0.91966542     0.39200
C2266       C  0.01270041  0.10425130  0.87078594    -0.04300
C2267       C  0.00009279  0.07891938  0.85879681     0.02900
C2268       C  0.00568377  0.05245516  0.86035199    -0.03900
C2269       C  0.01854597  0.04917029  0.87589108    -0.00100
C2270       C  0.03329082  0.07581229  0.88722835    -0.02700
C2271       C  0.00435042  0.12952674  0.86955858     0.36600
C2272       C  0.01638238  0.01885817  0.88083978     0.40200
C2273       C  0.98102140  0.08038539  0.84499156     0.39300
C2274       C  0.04920338  0.07376924  0.90231010     0.36200
C2275       C  0.00991076  0.13362929  0.90872247     0.36900
C2276       C  0.14425513  0.20091341  0.88886289     0.40200
N2277       N  0.96643842  0.08271294  0.83402192    -0.37900
N2278       N  0.99632379  0.14867752  0.86856545    -0.39500
N2279       N  0.01444208  0.99485430  0.88547407    -0.37200
N2280       N  0.06208215  0.07223742  0.91428565    -0.39600
N2281       N  0.11498273  0.12064103  0.87586623    -0.39400
N2282       N  0.17080312  0.20975567  0.88455601    -0.37000
N2283       N  0.04160717  0.20641543  0.93049880    -0.38100
N2284       N  0.98313873  0.11882822  0.91356459    -0.39700
C2285       C  0.79927810  0.88154774  0.86598410    -0.04700
C2286       C  0.82434063  0.91416082  0.86783153     0.09500
C2287       C  0.82003406  0.93463792  0.87887498    -0.02100
C2288       C  0.78987065  0.92332680  0.88734773    -0.00300
C2289       C  0.76417156  0.88944644  0.88662606    -0.03900
C2290       C  0.77056810  0.86871685  0.87580984     0.03100
C2291       C  0.85536034  0.92761383  0.85783947     0.09900
C2292       C  0.84696351  0.96820211  0.88120250     0.35800
C2293       C  0.74871861  0.83340284  0.87496077     0.39200
C2294       C  0.86280387  0.95195201  0.84572554    -0.04300
C2295       C  0.89450760  0.96955503  0.83874670     0.02900
C2296       C  0.91787446  0.96004408  0.84202594    -0.03900
C2297       C  0.90882564  0.93309483  0.85290158    -0.00100
C2298       C  0.87833881  0.91803704  0.86134469    -0.02700
C2299       C  0.83810836  0.95993971  0.84105891     0.36600
C2300       C  0.93055780  0.92060417  0.85571682     0.40200
C2301       C  0.90340338  0.99953170  0.82990135     0.39300
C2302       C  0.87098575  0.89336086  0.87407194     0.36200
C2303       C  0.80324422  0.86091384  0.85388865     0.36900
C2304       C  0.78639286  0.94859402  0.89520992     0.40200
N2305       N  0.90890503  0.02355013  0.82340262    -0.37900
N2306       N  0.81841044  0.96626067  0.83739163    -0.39500
N2307       N  0.94713751  0.90990111  0.85844978    -0.37200
N2308       N  0.86500805  0.87367287  0.88422444    -0.39600
N2309       N  0.86829804  0.99491598  0.88293717    -0.39400
N2310       N  0.78593305  0.97111966  0.90024034    -0.37000
N2311       N  0.73256221  0.80517552  0.87407126    -0.38100
N2312       N  0.80646023  0.84448622  0.84430317    -0.39700
C2313       C  0.05213490  0.89832559  0.88021803    -0.04700
C2314       C  0.07011052  0.92169498  0.86785622     0.09500
C2315       C  0.10323658  0.93199113  0.86541517    -0.02100
C2316       C  0.11880196  0.91974800  0.87559980    -0.00300
C2317       C  0.10061989  0.89358821  0.88758212    -0.03900
C2318       C  0.06694399  0.88482450  0.89024296     0.03100
C2319       C  0.05496611  0.93826325  0.85876718     0.09900
C2320       C  0.12151292  0.95557972  0.85222862     0.35800
C2321       C  0.04700811  0.86580949  0.90419420     0.39200
C2322       C  0.06515311  0.97115672  0.86252041    -0.04300
C2323       C  0.05070445  0.98670532  0.85424154     0.02900
C2324       C  0.02311343  0.96840495  0.84391148    -0.03900
C2325       C  0.01410592  0.93616523  0.83934506    -0.00100
C2326       C  0.03017314  0.92117386  0.84668377    -0.02700
C2327       C  0.09013812  0.98890816  0.87512323     0.36600
C2328       C  0.98902927  0.91885801  0.82674033     0.40200
C2329       C  0.06605806  0.02201645  0.85524034     0.39300
C2330       C  0.02117220  0.88817706  0.84190813     0.36200
C2331       C  0.01796254  0.88879846  0.88294632     0.36900
C2332       C  0.15426998  0.93580617  0.87389779     0.40200
N2333       N  0.07883976  0.05025686  0.85591073    -0.37900
N2334       N  0.10998882  0.00298736  0.88521367    -0.39500
N2335       N  0.96915885  0.90522848  0.81660064    -0.37200
N2336       N  0.01399757  0.86182016  0.83815573    -0.39600
N2337       N  0.13600157  0.97435888  0.84172755    -0.39400
N2338       N  0.18251846  0.94953141  0.87236796    -0.37000
N2339       N  0.02850917  0.85264973  0.91500814    -0.38100
N2340       N  0.99079920  0.88110226  0.88506871    -0.39700
C2341       C  0.04011699  0.07206213  0.73527037    -0.04700
C2342       C  0.03718583  0.04711253  0.74584667     0.09500
C2343       C  0.03635287  0.01952052  0.73892612    -0.02100
C2344       C  0.03784737  0.01644597  0.72140131    -0.00300
C2345       C  0.04247060  0.04228407  0.71042986    -0.03900
C2346       C  0.04049858  0.06872888  0.71772134     0.03100
C2347       C  0.02851726  0.04645008  0.76391413     0.09900
C2348       C  0.03200265  0.99322035  0.74995245     0.35800
C2349       C  0.03416914  0.09023817  0.70757496     0.39200
C2350       C  0.99608456  0.03667463  0.76834701    -0.04300
C2351       C  0.98573488  0.02966951  0.78520604     0.02900
C2352       C  0.00750934  0.03062246  0.79780436    -0.03900
C2353       C  0.04154747  0.04627124  0.79343583    -0.00100
C2354       C  0.05166744  0.05314284  0.77652591    -0.02700
C2355       C  0.97313706  0.03357347  0.75538173     0.36600
C2356       C  0.06652594  0.05510172  0.80617361     0.40200
C2357       C  0.95362864  0.02444252  0.78901048     0.39300
C2358       C  0.08581610  0.06645438  0.77195433     0.36200
C2359       C  0.04086686  0.10045725  0.74252230     0.36900
C2360       C  0.03027617  0.98471848  0.71506097     0.40200
N2361       N  0.92762782  0.02044850  0.79075167    -0.37900
N2362       N  0.95502537  0.03148113  0.74507581    -0.39500
N2363       N  0.08665105  0.06209444  0.81619647    -0.37200
N2364       N  0.11301988  0.07708665  0.76823385    -0.39600
N2365       N  0.02856893  0.97238884  0.75879420    -0.39400
N2366       N  0.02407503  0.95916649  0.71030813    -0.37000
N2367       N  0.02880433  0.10732659  0.69962755    -0.38100
N2368       N  0.04148174  0.12309642  0.74828754    -0.39700
C2369       C  0.11634615  0.94735581  0.61427701    -0.04700
C2370       C  0.10540038  0.94481812  0.63076376     0.09500
C2371       C  0.10507331  0.92145613  0.64147877    -0.02100
C2372       C  0.11854190  0.90235716  0.63637059    -0.00300
C2373       C  0.12804228  0.90224508  0.61906764    -0.03900
C2374       C  0.12568642  0.92539339  0.60814181     0.03100
C2375       C  0.09401444  0.96666124  0.63739493     0.09900
C2376       C  0.09161033  0.91803897  0.65835330     0.35800
C2377       C  0.12953077  0.92538554  0.59008600     0.39200
C2378       C  0.06113788  0.95797303  0.63517466    -0.04300
C2379       C  0.04773467  0.97291995  0.64497255     0.02900
C2380       C  0.06741424  0.99728059  0.65689011    -0.03900
C2381       C  0.10093401  0.00689578  0.65852098    -0.00100
C2382       C  0.11421482  0.99198632  0.64857921    -0.02700
C2383       C  0.04073276  0.93293250  0.62308280     0.36600
C2384       C  0.12183889  0.03145365  0.67067117     0.40200
C2385       C  0.01301158  0.96117140  0.64338914     0.39300
C2386       C  0.14860322  0.00202918  0.65008676     0.36200
C2387       C  0.11693967  0.97219421  0.60342267     0.36900
C2388       C  0.12459533  0.88679069  0.65027069     0.40200
N2389       N  0.98518879  0.95076041  0.64167775    -0.37900
N2390       N  0.02413153  0.91330848  0.61337719    -0.39500
N2391       N  0.13852940  0.05059245  0.68055427    -0.37200
N2392       N  0.17603915  0.01006425  0.65118115    -0.39600
N2393       N  0.08096124  0.91542818  0.67171835    -0.39400
N2394       N  0.12809575  0.87639804  0.66268828    -0.37000
N2395       N  0.13116089  0.92662730  0.57559548    -0.38100
N2396       N  0.11743380  0.99202284  0.59480977    -0.39700
C2397       C  0.84725567  0.95227500  0.64083742    -0.04700
C2398       C  0.87094016  0.94319165  0.64008187     0.09500
C2399       C  0.86486057  0.91560919  0.63088276    -0.02100
C2400       C  0.83462977  0.89617042  0.62265586    -0.00300
C2401       C  0.80773349  0.90193076  0.62504092    -0.03900
C2402       C  0.81612276  0.93231291  0.63342803     0.03100
C2403       C  0.90387039  0.96395006  0.64780157     0.09900
C2404       C  0.89092381  0.90811652  0.62928204     0.35800
C2405       C  0.79221912  0.94226402  0.63624892     0.39200
C2406       C  0.91096215  0.95490019  0.66328265    -0.04300
C2407       C  0.94348211  0.97017232  0.66902113     0.02900
C2408       C  0.96927025  0.99681401  0.66001228    -0.03900
C2409       C  0.96197261  0.00463161  0.64393289    -0.00100
C2410       C  0.92930288  0.98875272  0.63815758    -0.02700
C2411       C  0.88499457  0.92913358  0.67328318     0.36600
C2412       C  0.98726999  0.02679793  0.63240144     0.40200
C2413       C  0.95038716  0.95582269  0.68336662     0.39300
C2414       C  0.92173656  0.99712962  0.62190933     0.36200
C2415       C  0.85458547  0.98163727  0.65005108     0.36900
C2416       C  0.83469785  0.87361837  0.61042632     0.40200
N2417       N  0.95548917  0.94408085  0.69478324    -0.37900
N2418       N  0.86531133  0.90888441  0.68182219    -0.39500
N2419       N  0.00643317  0.04347124  0.62246522    -0.37200
N2420       N  0.91561041  0.00374517  0.60899334    -0.39600
N2421       N  0.91171432  0.90232367  0.62797164    -0.39400
N2422       N  0.83645323  0.85658425  0.60064525    -0.37000
N2423       N  0.77419914  0.95120742  0.63916632    -0.38100
N2424       N  0.86036011  0.00491476  0.65746468    -0.39700
C2425       C  0.04860033  0.12327884  0.63434204    -0.04700
C2426       C  0.08150541  0.14421360  0.62938554     0.09500
C2427       C  0.10615422  0.13853541  0.63573449    -0.02100
C2428       C  0.09756387  0.11194900  0.64650511    -0.00300
C2429       C  0.06522541  0.09319359  0.65245106    -0.03900
C2430       C  0.04131028  0.10047283  0.64724005     0.03100
C2431       C  0.09106242  0.17355435  0.61859143     0.09900
C2432       C  0.14048581  0.15974607  0.63130015     0.35800
C2433       C  0.00981045  0.08595752  0.65570918     0.39200
C2434       C  0.08523348  0.19842105  0.62372279    -0.04300
C2435       C  0.10363319  0.23000845  0.61661330     0.02900
C2436       C  0.13277905  0.23888697  0.60688032    -0.03900
C2437       C  0.13368490  0.21142697  0.59952513    -0.00100
C2438       C  0.11086218  0.17907918  0.60455212    -0.02700
C2439       C  0.06366867  0.19321315  0.63786985     0.36600
C2440       C  0.15616906  0.21398217  0.58643839     0.40200
C2441       C  0.09521150  0.25395834  0.62210068     0.39300
C2442       C  0.10890542  0.15102788  0.59604610     0.36200
C2443       C  0.02214856  0.12430313  0.62584739     0.36900
C2444       C  0.12233106  0.10460222  0.65172454     0.40200
N2445       N  0.08784866  0.27210631  0.62717654    -0.37900
N2446       N  0.04663793  0.18932286  0.64915176    -0.39500
N2447       N  0.17322370  0.21425617  0.57594547    -0.37200
N2448       N  0.10722304  0.12868639  0.58928038    -0.39600
N2449       N  0.16788593  0.17603140  0.62769544    -0.39400
N2450       N  0.14282146  0.09956349  0.65555122    -0.37000
N2451       N  0.98481112  0.07487582  0.66256113    -0.38100
N2452       N  0.00098401  0.12489731  0.61900464    -0.39700
C2453       C  0.52132002  0.00696130  0.69900274    -0.04700
C2454       C  0.54526962  0.04016835  0.69713211     0.09500
C2455       C  0.55900552  0.05918602  0.71165289    -0.02100
C2456       C  0.54749099  0.04595705  0.72800430    -0.00300
C2457       C  0.52266080  0.01195437  0.73028892    -0.03900
C2458       C  0.51117259  0.99267154  0.71508866     0.03100
C2459       C  0.55353324  0.05507574  0.67968721     0.09900
C2460       C  0.58683414  0.09212116  0.70968751     0.35800
C2461       C  0.48645616  0.95808862  0.71518760     0.39200
C2462       C  0.53978340  0.07347212  0.67419489    -0.04300
C2463       C  0.53925595  0.08010655  0.65694089     0.02900
C2464       C  0.55841185  0.07456128  0.64485237    -0.03900
C2465       C  0.56716904  0.05122359  0.65025844    -0.00100
C2466       C  0.56747514  0.04417227  0.66755854    -0.02700
C2467       C  0.52379319  0.08376626  0.68622271     0.36600
C2468       C  0.57114835  0.03042692  0.63834569     0.40200
C2469       C  0.51145638  0.08274817  0.65190602     0.39300
C2470       C  0.58197071  0.02523673  0.67293555     0.36200
C2471       C  0.50590901  0.98735400  0.68408043     0.36900
C2472       C  0.56478527  0.06730069  0.74202238     0.40200
N2473       N  0.48766785  0.08286614  0.64888395    -0.37900
N2474       N  0.51128269  0.09240390  0.69569015    -0.39500
N2475       N  0.57402926  0.01333701  0.62906286    -0.37200
N2476       N  0.59376783  0.01039283  0.67729122    -0.39600
N2477       N  0.60960234  0.11807515  0.70819049    -0.39400
N2478       N  0.57951314  0.08498231  0.75285458    -0.37000
N2479       N  0.46661326  0.93076893  0.71353200    -0.38100
N2480       N  0.49370895  0.97177817  0.67222531    -0.39700
C2481       C  0.63737819  0.22953816  0.67796632    -0.04700
C2482       C  0.63564261  0.22464352  0.66062635     0.09500
C2483       C  0.64764703  0.25176937  0.64996290    -0.02100
C2484       C  0.66037156  0.28373753  0.65644374    -0.00300
C2485       C  0.66115130  0.29002294  0.67431701    -0.03900
C2486       C  0.65141727  0.26150387  0.68487186     0.03100
C2487       C  0.61957965  0.19084263  0.65310411     0.09900
C2488       C  0.64510864  0.24632915  0.63187103     0.35800
C2489       C  0.65815951  0.26313649  0.70268733     0.39200
C2490       C  0.58534513  0.17281817  0.65147435    -0.04300
C2491       C  0.57030692  0.14655568  0.64002610     0.02900
C2492       C  0.58812336  0.13270868  0.63264956    -0.03900
C2493       C  0.62284710  0.15520027  0.63199393    -0.00100
C2494       C  0.63829930  0.18148595  0.64348539    -0.02700
C2495       C  0.56543589  0.18273446  0.66071607     0.36600
C2496       C  0.64220963  0.15705521  0.61754094     0.40200
C2497       C  0.54055517  0.14206103  0.63248587     0.39300
C2498       C  0.67383270  0.20012454  0.64481124     0.36200
C2499       C  0.62468583  0.20110478  0.68885196     0.36900
C2500       C  0.66994690  0.30868702  0.64367251     0.40200
N2501       N  0.51741019  0.14050004  0.62675069    -0.37900
N2502       N  0.54935887  0.19020092  0.66818900    -0.39500
N2503       N  0.65813734  0.15958982  0.60598806    -0.37200
N2504       N  0.70213475  0.21486124  0.64599448    -0.39600
N2505       N  0.64305856  0.24192027  0.61753344    -0.39400
N2506       N  0.67610652  0.32524521  0.63196631    -0.37000
N2507       N  0.66346624  0.26273393  0.71682755    -0.38100
N2508       N  0.61427053  0.17860962  0.69763902    -0.39700
C2509       C  0.50542806  0.43364710  0.70518242    -0.04700
C2510       C  0.53176816  0.46092102  0.69711881     0.09500
C2511       C  0.55148173  0.48896162  0.70702869    -0.02100
C2512       C  0.54429318  0.48966592  0.72423080    -0.00300
C2513       C  0.51266196  0.46673159  0.73090632    -0.03900
C2514       C  0.49510926  0.43652829  0.72159544     0.03100
C2515       C  0.54013324  0.45966834  0.67871218     0.09900
C2516       C  0.57733003  0.51878493  0.69924750     0.35800
C2517       C  0.46744196  0.40718882  0.72864197     0.39200
C2518       C  0.51719082  0.45194927  0.66561075    -0.04300
C2519       C  0.52486313  0.44830108  0.64866767     0.02900
C2520       C  0.55809215  0.45870011  0.64373197    -0.03900
C2521       C  0.58174720  0.47282358  0.65721872    -0.00100
C2522       C  0.57195493  0.46768829  0.67415695    -0.02700
C2523       C  0.48512545  0.44715638  0.66947942     0.36600
C2524       C  0.61667153  0.49403381  0.65423468     0.40200
C2525       C  0.49716700  0.43254672  0.63742309     0.39300
C2526       C  0.59503911  0.47053439  0.68694790     0.36200
C2527       C  0.48916107  0.40227611  0.69661039     0.36900
C2528       C  0.57041708  0.51409573  0.73447894     0.40200
N2529       N  0.47327960  0.41921605  0.62960775    -0.37900
N2530       N  0.45935368  0.44319238  0.67211136    -0.39500
N2531       N  0.64455433  0.51234841  0.65279247    -0.37200
N2532       N  0.61325724  0.47286467  0.69724276    -0.39600
N2533       N  0.59773036  0.54261163  0.69303220    -0.39400
N2534       N  0.59367272  0.53328945  0.74154996    -0.37000
N2535       N  0.44516170  0.38314649  0.73360259    -0.38100
N2536       N  0.47632734  0.37728505  0.68977279    -0.39700
C2537       C  0.63263382  0.42582513  0.64434981    -0.04700
C2538       C  0.61116557  0.39749389  0.65370252     0.09500
C2539       C  0.57774965  0.38716517  0.65413015    -0.02100
C2540       C  0.56511258  0.40255548  0.64410596    -0.00300
C2541       C  0.58614854  0.43130556  0.63401395    -0.03900
C2542       C  0.62060812  0.44216493  0.63433622     0.03100
C2543       C  0.62318981  0.37743748  0.66256141     0.09900
C2544       C  0.55613250  0.36081802  0.66547581     0.35800
C2545       C  0.64543477  0.47114567  0.62562696     0.39200
C2546       C  0.64495756  0.39028792  0.67611975    -0.04300
C2547       C  0.66141677  0.37435731  0.68200338     0.02900
C2548       C  0.65304169  0.34221813  0.67600079    -0.03900
C2549       C  0.62469607  0.32665437  0.66517998    -0.00100
C2550       C  0.61258692  0.34515903  0.65739164    -0.02700
C2551       C  0.65172232  0.42104840  0.68352643     0.36600
C2552       C  0.60547449  0.29166084  0.66230926     0.40200
C2553       C  0.68925396  0.39389126  0.69282182     0.39300
C2554       C  0.58937964  0.33081021  0.64364358     0.36200
C2555       C  0.66790335  0.44028261  0.64599528     0.36900
C2556       C  0.52953794  0.38679294  0.64378369     0.40200
N2557       N  0.71100838  0.41163107  0.70125626    -0.37900
N2558       N  0.65739081  0.44562007  0.68943864    -0.39500
N2559       N  0.58878977  0.26389417  0.65975952    -0.37200
N2560       N  0.57078530  0.31894398  0.63278639    -0.39600
N2561       N  0.53893360  0.33992656  0.67452179    -0.39400
N2562       N  0.50113433  0.37264939  0.64367289    -0.37000
N2563       N  0.66695075  0.49421766  0.61939592    -0.38100
N2564       N  0.69612831  0.45323849  0.64739727    -0.39700
C2565       C  0.97571363  0.48149628  0.66550289    -0.04700
C2566       C  0.95559226  0.47633108  0.67970684     0.09500
C2567       C  0.92163913  0.45993986  0.67745319    -0.02100
C2568       C  0.90816689  0.44635194  0.66177639    -0.00300
C2569       C  0.92721669  0.45752615  0.64647783    -0.03900
C2570       C  0.96197899  0.47302285  0.64902840     0.03100
C2571       C  0.96839865  0.48012797  0.69740187     0.09900
C2572       C  0.89999901  0.45223239  0.69191457     0.35800
C2573       C  0.98433612  0.48152465  0.63499847     0.39200
C2574       C  0.96671082  0.50170113  0.70902996    -0.04300
C2575       C  0.97756071  0.50356767  0.72586118     0.02900
C2576       C  0.99216851  0.48498626  0.73107202    -0.03900
C2577       C  0.98472448  0.45756128  0.72040111    -0.00100
C2578       C  0.97567359  0.45689488  0.70350248    -0.02700
C2579       C  0.95528012  0.52315844  0.70343826     0.36600
C2580       C  0.98117950  0.42728962  0.72670950     0.40200
C2581       C  0.97540622  0.52621657  0.73728336     0.39300
C2582       C  0.97178139  0.43067027  0.69252315     0.36200
C2583       C  0.01075921  0.49601628  0.66785177     0.36900
C2584       C  0.87867856  0.41457752  0.66321318     0.40200
N2585       N  0.97367475  0.54437876  0.74628304    -0.37900
N2586       N  0.94599105  0.54012873  0.69896288    -0.39500
N2587       N  0.97753688  0.40228946  0.73082846    -0.37200
N2588       N  0.96867402  0.40982473  0.68379388    -0.39600
N2589       N  0.88270331  0.44600485  0.70334717    -0.39400
N2590       N  0.85632786  0.38878799  0.66565502    -0.37000
N2591       N  0.00343926  0.48892523  0.62432856    -0.38100
N2592       N  0.03870804  0.50734238  0.66968349    -0.39700
C2593       C  0.82738779  0.42931222  0.64912177    -0.04700
C2594       C  0.80688788  0.39569325  0.64571199     0.09500
C2595       C  0.81680695  0.38159601  0.63321661    -0.02100
C2596       C  0.84876653  0.39953375  0.62593246    -0.00300
C2597       C  0.87173275  0.43279270  0.63089167    -0.03900
C2598       C  0.85772616  0.44821389  0.64068890     0.03100
C2599       C  0.77335655  0.37695525  0.65399039     0.09900
C2600       C  0.79388754  0.34829546  0.62784665     0.35800
C2601       C  0.87454268  0.48322403  0.64359402     0.39200
C2602       C  0.75084549  0.38701570  0.65100212    -0.04300
C2603       C  0.72036365  0.37261559  0.65960097     0.02900
C2604       C  0.71093295  0.34698810  0.67213544    -0.03900
C2605       C  0.73394112  0.33581138  0.67390336    -0.00100
C2606       C  0.76417292  0.35037419  0.66492074    -0.02700
C2607       C  0.75835906  0.41101031  0.63766947     0.36600
C2608       C  0.72821034  0.30982867  0.68546822     0.40200
C2609       C  0.69812386  0.38113914  0.65209391     0.39300
C2610       C  0.78529133  0.33679234  0.66670495     0.36200
C2611       C  0.81812861  0.44426925  0.66230094     0.36900
C2612       C  0.85536733  0.38365783  0.61234038     0.40200
N2613       N  0.68198858  0.38758482  0.64406421    -0.37900
N2614       N  0.76426989  0.42986444  0.62705907    -0.39500
N2615       N  0.72647469  0.28992230  0.69447520    -0.37200
N2616       N  0.80085711  0.32455769  0.66818751    -0.39600
N2617       N  0.77568544  0.32168740  0.62364974    -0.39400
N2618       N  0.85901976  0.37043080  0.60111770    -0.37000
N2619       N  0.88552317  0.51082262  0.64630150    -0.38100
N2620       N  0.81081986  0.45611169  0.67281776    -0.39700
C2621       C  0.04975536  0.37258342  0.48139933    -0.04700
C2622       C  0.01907531  0.34441292  0.48531719     0.09500
C2623       C  0.00019758  0.32459798  0.47198599    -0.02100
C2624       C  0.01292219  0.33031424  0.45551229    -0.00300
C2625       C  0.04747661  0.35333617  0.45197606    -0.03900
C2626       C  0.06323181  0.37771737  0.46476005     0.03100
C2627       C  0.00577247  0.33395387  0.50311641     0.09900
C2628       C  0.96660908  0.29827099  0.47522683     0.35800
C2629       C  0.09405562  0.40758604  0.46126579     0.39200
C2630       C  0.99312209  0.35008364  0.51257634    -0.04300
C2631       C  0.97810566  0.33800227  0.52865693     0.02900
C2632       C  0.97497994  0.30856462  0.53583434    -0.03900
C2633       C  0.98348849  0.29025795  0.52451167    -0.00100
C2634       C  0.00070718  0.30400154  0.50928545    -0.02700
C2635       C  0.99525520  0.37925511  0.50553409     0.36600
C2636       C  0.97712377  0.25772578  0.52828600     0.40200
C2637       C  0.96402621  0.35544181  0.53650434     0.39300
C2638       C  0.01478168  0.28761382  0.50012906     0.36200
C2639       C  0.06849555  0.39535049  0.49465221     0.36900
C2640       C  0.98777746  0.31619430  0.44264310     0.40200
N2641       N  0.95253649  0.36984482  0.54199577    -0.37900
N2642       N  0.99704036  0.40254938  0.49991426    -0.39500
N2643       N  0.97285825  0.23158713  0.52961021    -0.37200
N2644       N  0.02604980  0.27444717  0.49305963    -0.39600
N2645       N  0.94002349  0.27725630  0.47783556    -0.39400
N2646       N  0.96664510  0.30551089  0.43298379    -0.37000
N2647       N  0.11863595  0.43161042  0.45870862    -0.38100
N2648       N  0.08364575  0.41368056  0.50516662    -0.39700
C2649       C  0.97531683  0.37444250  0.58098190    -0.04700
C2650       C  0.94291441  0.36495699  0.58539000     0.09500
C2651       C  0.91824578  0.33267958  0.58149633    -0.02100
C2652       C  0.92594937  0.30999095  0.57422595    -0.00300
C2653       C  0.95768087  0.32040147  0.56669041    -0.03900
C2654       C  0.98267927  0.35350438  0.57141586     0.03100
C2655       C  0.93569792  0.38739834  0.59615722     0.09900
C2656       C  0.88447084  0.32166341  0.58600605     0.35800
C2657       C  0.01706437  0.36754240  0.56747515     0.39200
C2658       C  0.94128664  0.41770984  0.59014049    -0.04300
C2659       C  0.93840669  0.44017851  0.60087425     0.02900
C2660       C  0.92330535  0.43071651  0.61730144    -0.03900
C2661       C  0.92113130  0.40107936  0.62360177    -0.00100
C2662       C  0.92722463  0.38023035  0.61319641    -0.02700
C2663       C  0.95147539  0.42662223  0.57281391     0.36600
C2664       C  0.91503450  0.39155195  0.64102717     0.40200
C2665       C  0.95699904  0.47409729  0.59558024     0.39300
C2666       C  0.92540711  0.35110907  0.62022140     0.36200
C2667       C  0.00169276  0.40605641  0.58685603     0.36900
C2668       C  0.90230314  0.27606783  0.57808080     0.40200
N2669       N  0.97300363  0.50100783  0.59118500    -0.37900
N2670       N  0.95973198  0.43401419  0.55904430    -0.39500
N2671       N  0.91198659  0.38171655  0.65459085    -0.37200
N2672       N  0.92395445  0.32790064  0.62574636    -0.39600
N2673       N  0.85730869  0.31186722  0.58949432    -0.39400
N2674       N  0.88293285  0.24960974  0.58203552    -0.37000
N2675       N  0.04528211  0.38176555  0.56576606    -0.38100
N2676       N  0.02261348  0.43115254  0.59160391    -0.39700
C2677       C  0.02396030  0.28771944  0.58793604    -0.04700
C2678       C  0.05067244  0.29308338  0.57784316     0.09500
C2679       C  0.05318230  0.30513017  0.56157948    -0.02100
C2680       C  0.02911604  0.31120155  0.55524603    -0.00300
C2681       C  0.99785901  0.29914422  0.56374642    -0.03900
C2682       C  0.99789698  0.29080077  0.58112839     0.03100
C2683       C  0.07859046  0.28979886  0.58447786     0.09900
C2684       C  0.08236922  0.31373428  0.55163214     0.35800
C2685       C  0.97077918  0.28345933  0.59224165     0.39200
C2686       C  0.08445790  0.26598473  0.57778011    -0.04300
C2687       C  0.11422025  0.26699716  0.58102297     0.02900
C2688       C  0.13685835  0.28828642  0.59363797    -0.03900
C2689       C  0.13194304  0.31460806  0.59881129    -0.00100
C2690       C  0.10312219  0.31491850  0.59426903    -0.02700
C2691       C  0.06010383  0.24072845  0.56688620     0.36600
C2692       C  0.15640175  0.34370394  0.60734898     0.40200
C2693       C  0.12158236  0.24705662  0.57024338     0.39300
C2694       C  0.09877693  0.34182833  0.59942594     0.36200
C2695       C  0.02238124  0.27712940  0.60515816     0.36900
C2696       C  0.04150991  0.33598035  0.54217339     0.40200
N2697       N  0.12594406  0.23159592  0.56052227    -0.37900
N2698       N  0.04112016  0.22046152  0.55813737    -0.39500
N2699       N  0.17413054  0.36852164  0.61370790    -0.37200
N2700       N  0.09527046  0.36321301  0.60346759    -0.39600
N2701       N  0.10555043  0.32050099  0.54378218    -0.39400
N2702       N  0.05387529  0.35679660  0.53235474    -0.37000
N2703       N  0.95031426  0.27752846  0.60196088    -0.38100
N2704       N  0.02088747  0.26861531  0.61889593    -0.39700
C2705       C  0.71503276  0.99587093  0.52172496    -0.04700
C2706       C  0.70278058  0.00803821  0.50962828     0.09500
C2707       C  0.70039629  0.03556105  0.51397147    -0.02100
C2708       C  0.71267726  0.05218838  0.52969015    -0.00300
C2709       C  0.72732949  0.04121384  0.54190430    -0.03900
C2710       C  0.72212562  0.00899536  0.53810616     0.03100
C2711       C  0.69436998  0.99304427  0.49212290     0.09900
C2712       C  0.68707628  0.04806853  0.50168156     0.35800
C2713       C  0.71563889  0.98449918  0.55074240     0.39200
C2714       C  0.66256508  0.96763101  0.48751179    -0.04300
C2715       C  0.65609750  0.95366899  0.47096036     0.02900
C2716       C  0.68122968  0.96605332  0.45818219    -0.03900
C2717       C  0.71083256  0.99599881  0.46292129    -0.00100
C2718       C  0.71883570  0.00494952  0.47983413    -0.02700
C2719       C  0.63724835  0.95385134  0.50028925     0.36600
C2720       C  0.72893090  0.02356445  0.45173380     0.40200
C2721       C  0.62374050  0.92581682  0.46760842     0.39300
C2722       C  0.75283049  0.02745456  0.48433716     0.36200
C2723       C  0.71990466  0.96888772  0.51767001     0.36900
C2724       C  0.71074616  0.08120722  0.53251643     0.40200
N2725       N  0.59764185  0.90372828  0.46524858    -0.37900
N2726       N  0.61718734  0.94258501  0.51057363    -0.39500
N2727       N  0.74405112  0.04766860  0.44426149    -0.37200
N2728       N  0.78024116  0.04461501  0.48760135    -0.39600
N2729       N  0.67655691  0.05804098  0.49180698    -0.39400
N2730       N  0.70823666  0.10405251  0.53384098    -0.37000
N2731       N  0.70878030  0.96315575  0.55996140    -0.38100
N2732       N  0.72481992  0.94783347  0.51511285    -0.39700
C2733       C  0.64950887  0.08812235  0.61592101    -0.04700
C2734       C  0.64508000  0.07966704  0.59877606     0.09500
C2735       C  0.61533776  0.07278525  0.59132058    -0.02100
C2736       C  0.58990336  0.07266071  0.60085788    -0.00300
C2737       C  0.59564750  0.08658090  0.61750662    -0.03900
C2738       C  0.62594457  0.09228446  0.62509286     0.03100
C2739       C  0.67036695  0.07556945  0.58871077     0.09900
C2740       C  0.61029856  0.06462288  0.57357771     0.35800
C2741       C  0.63386976  0.10287935  0.64243986     0.39200
C2742       C  0.66264525  0.04463037  0.58264045    -0.04300
C2743       C  0.68475648  0.04064509  0.57210191     0.02900
C2744       C  0.71754091  0.06742019  0.56835271    -0.03900
C2745       C  0.72258349  0.09926782  0.57288960    -0.00100
C2746       C  0.70057458  0.10273205  0.58375465    -0.02700
C2747       C  0.63173357  0.01612920  0.58782169     0.36600
C2748       C  0.74703982  0.12942982  0.56483073     0.40200
C2749       C  0.67141987  0.00832702  0.56501405     0.39300
C2750       C  0.70904235  0.13508804  0.58953267     0.36200
C2751       C  0.67877349  0.09272772  0.62419966     0.36900
C2752       C  0.55735502  0.05301458  0.59379093     0.40200
N2753       N  0.65697811  0.98193691  0.55975606    -0.37900
N2754       N  0.60713166  0.99348489  0.59194141    -0.39500
N2755       N  0.76569738  0.15410331  0.55858642    -0.37200
N2756       N  0.71680850  0.16116772  0.59409679    -0.39600
N2757       N  0.60620516  0.05800187  0.55947395    -0.39400
N2758       N  0.53203531  0.03642407  0.58758974    -0.37000
N2759       N  0.64061540  0.11140178  0.65621174    -0.38100
N2760       N  0.70214965  0.09640048  0.63076403    -0.39700
C2761       C  0.82618063  0.14189147  0.53988964    -0.04700
C2762       C  0.84199132  0.16027873  0.55433803     0.09500
C2763       C  0.82767393  0.14628484  0.56991797    -0.02100
C2764       C  0.79810507  0.11501972  0.57114154    -0.00300
C2765       C  0.77954402  0.09651868  0.55654683    -0.03900
C2766       C  0.79533633  0.11147328  0.54073308     0.03100
C2767       C  0.87413224  0.19397316  0.55329333     0.09900
C2768       C  0.84332296  0.16476169  0.58507022     0.35800
C2769       C  0.78215816  0.09665168  0.52468248     0.39200
C2770       C  0.87534074  0.22136034  0.54568306    -0.04300
C2771       C  0.90483062  0.25293187  0.54544349     0.02900
C2772       C  0.93448719  0.25941651  0.55397061    -0.03900
C2773       C  0.93318036  0.23000779  0.56020736    -0.00100
C2774       C  0.90365796  0.19850598  0.55989231    -0.02700
C2775       C  0.84534484  0.21736105  0.53859763     0.36600
C2776       C  0.96192454  0.22902313  0.56518208     0.40200
C2777       C  0.90271886  0.27893144  0.53721309     0.39300
C2778       C  0.90387262  0.16969932  0.56588836     0.36200
C2779       C  0.84275287  0.15405614  0.52386379     0.36900
C2780       C  0.78620518  0.10463514  0.58807351     0.40200
N2781       N  0.89883027  0.29815168  0.53040166    -0.37900
N2782       N  0.82145621  0.21413361  0.53290025    -0.39500
N2783       N  0.98342737  0.22537711  0.56881176    -0.37200
N2784       N  0.90405849  0.14681871  0.57066525    -0.39600
N2785       N  0.85574430  0.17916384  0.59719651    -0.39400
N2786       N  0.77934336  0.09974337  0.60214066    -0.37000
N2787       N  0.77406749  0.08712917  0.51116642    -0.38100
N2788       N  0.85608547  0.16372870  0.51114174    -0.39700
C2789       C  0.79569694  0.95719645  0.59050552    -0.04700
C2790       C  0.76763865  0.96020139  0.59026318     0.09500
C2791       C  0.73839548  0.93361719  0.59680092    -0.02100
C2792       C  0.73943128  0.90989133  0.60711991    -0.00300
C2793       C  0.76652233  0.90409640  0.60610866    -0.03900
C2794       C  0.79331129  0.92745468  0.59564042     0.03100
C2795       C  0.76848312  0.99110276  0.58401369     0.09900
C2796       C  0.70718231  0.93185927  0.59428790     0.35800
C2797       C  0.81920175  0.92212597  0.58988881     0.39200
C2798       C  0.78125060  0.00508775  0.56816432    -0.04300
C2799       C  0.77913190  0.03217857  0.56221870     0.02900
C2800       C  0.75648167  0.04047762  0.56970359    -0.03900
C2801       C  0.74555213  0.02733717  0.58636692    -0.00100
C2802       C  0.75451920  0.00572310  0.59372695    -0.02700
C2803       C  0.79270494  0.98912154  0.55680186     0.36600
C2804       C  0.72594037  0.03544881  0.59695630     0.40200
C2805       C  0.79705751  0.04744593  0.54690801     0.39300
C2806       C  0.74879724  0.99795162  0.61151316     0.36200
C2807       C  0.82770591  0.98507728  0.58636841     0.36900
C2808       C  0.71497061  0.89765426  0.62029668     0.40200
N2809       N  0.81234949  0.05820408  0.53478004    -0.37900
N2810       N  0.80164390  0.97645979  0.54761160    -0.39500
N2811       N  0.71088322  0.04104894  0.60639866    -0.37200
N2812       N  0.74413965  0.99184625  0.62566281    -0.39600
N2813       N  0.68205282  0.92997550  0.59260220    -0.39400
N2814       N  0.69535212  0.89012010  0.63071846    -0.37000
N2815       N  0.84018505  0.91930220  0.58436176    -0.38100
N2816       N  0.85334664  0.00719692  0.58312962    -0.39700
C2817       C  0.34486886  0.36259424  0.47901692    -0.04700
C2818       C  0.32718930  0.33244602  0.48750013     0.09500
C2819       C  0.29477125  0.31062654  0.48256438    -0.02100
C2820       C  0.28153213  0.31663036  0.46798842    -0.00300
C2821       C  0.29965660  0.34668373  0.45829209    -0.03900
C2822       C  0.33074928  0.37075732  0.46547626     0.03100
C2823       C  0.34195767  0.32451477  0.50239391     0.09900
C2824       C  0.27472334  0.28167114  0.49274997     0.35800
C2825       C  0.35046660  0.40380877  0.45917473     0.39200
C2826       C  0.34832319  0.34219734  0.51731730    -0.04300
C2827       C  0.36300518  0.33591926  0.53108946     0.02900
C2828       C  0.36603091  0.30703883  0.53190327    -0.03900
C2829       C  0.36023759  0.28986965  0.51616943    -0.00100
C2830       C  0.34949151  0.29946223  0.50166380    -0.02700
C2831       C  0.33876544  0.36669214  0.51871795     0.36600
C2832       C  0.36281628  0.26105438  0.51415644     0.40200
C2833       C  0.37603160  0.36103651  0.54394250     0.39300
C2834       C  0.34470928  0.28237426  0.48588750     0.36200
C2835       C  0.37865839  0.38511291  0.48396616     0.36900
C2836       C  0.24857940  0.29098583  0.46339789     0.40200
N2837       N  0.38712376  0.38299365  0.55311669    -0.37900
N2838       N  0.33093720  0.38600075  0.51984612    -0.39500
N2839       N  0.36371793  0.23762216  0.51138751    -0.37200
N2840       N  0.34075094  0.26845148  0.47340552    -0.39600
N2841       N  0.25874231  0.25880153  0.50096752    -0.39400
N2842       N  0.22211452  0.27003883  0.46052145    -0.37000
N2843       N  0.36809692  0.43069964  0.45514154    -0.38100
N2844       N  0.40558128  0.40293536  0.48788195    -0.39700
C2845       C  0.45851805  0.36958505  0.56122699    -0.04700
C2846       C  0.46074009  0.36481618  0.57844621     0.09500
C2847       C  0.43597241  0.33578858  0.58587109    -0.02100
C2848       C  0.40848651  0.31230807  0.57650302    -0.00300
C2849       C  0.40271894  0.31868514  0.55952281    -0.03900
C2850       C  0.43042682  0.34711540  0.55174861     0.03100
C2851       C  0.49070707  0.38839911  0.58865376     0.09900
C2852       C  0.43808754  0.33077300  0.60373284     0.35800
C2853       C  0.43271768  0.35351425  0.53382201     0.39200
C2854       C  0.49745343  0.41993486  0.59289625    -0.04300
C2855       C  0.52386293  0.44042849  0.60385648     0.02900
C2856       C  0.54257728  0.42866107  0.61246397    -0.03900
C2857       C  0.53755027  0.39771523  0.60591205    -0.00100
C2858       C  0.51207699  0.37843328  0.59438501    -0.02700
C2859       C  0.47637792  0.43109089  0.58624587     0.36600
C2860       C  0.55931377  0.38526607  0.60917233     0.40200
C2861       C  0.53001558  0.47331801  0.60628662     0.39300
C2862       C  0.50801819  0.34791358  0.58788344     0.36200
C2863       C  0.48622013  0.39736992  0.55304973     0.36900
C2864       C  0.38553546  0.28300724  0.58561519     0.40200
N2865       N  0.53305817  0.49900002  0.60737022    -0.37900
N2866       N  0.45961248  0.43998406  0.58091938    -0.39500
N2867       N  0.57623437  0.37464080  0.61110625    -0.37200
N2868       N  0.50467869  0.32368106  0.58266208    -0.39600
N2869       N  0.43978737  0.32692123  0.61794143    -0.39400
N2870       N  0.36950433  0.26083949  0.59424724    -0.37000
N2871       N  0.43558361  0.35936482  0.51960124    -0.38100
N2872       N  0.50832216  0.41941464  0.54652727    -0.39700
C2873       C  0.27617891  0.27024331  0.55598573    -0.04700
C2874       C  0.27756484  0.29103396  0.56874818     0.09500
C2875       C  0.30793647  0.31323949  0.57591320    -0.02100
C2876       C  0.33680490  0.31292858  0.57162091    -0.00300
C2877       C  0.33661483  0.29165377  0.55850764    -0.03900
C2878       C  0.30496423  0.27101042  0.55051925     0.03100
C2879       C  0.24663294  0.28664345  0.57653524     0.09900
C2880       C  0.30915038  0.33691310  0.58796587     0.35800
C2881       C  0.30027372  0.24761030  0.53749358     0.39200
C2882       C  0.23797965  0.27320540  0.59264838    -0.04300
C2883       C  0.21092521  0.27118500  0.60111444     0.02900
C2884       C  0.18971674  0.28073715  0.59321043    -0.03900
C2885       C  0.19989856  0.29550091  0.57680200    -0.00100
C2886       C  0.22772018  0.29780942  0.56864235    -0.02700
C2887       C  0.25748220  0.26137985  0.60074556     0.36600
C2888       C  0.18545299  0.31243348  0.56871840     0.40200
C2889       C  0.20618197  0.25873275  0.61809195     0.39300
C2890       C  0.23799736  0.31313917  0.55224834     0.36200
C2891       C  0.24447420  0.24700782  0.54876952     0.36900
C2892       C  0.36565697  0.33676875  0.58068479     0.40200
N2893       N  0.20633712  0.24932537  0.63144712    -0.37900
N2894       N  0.27291029  0.25219917  0.60740717    -0.39500
N2895       N  0.17482450  0.32650561  0.56195605    -0.37200
N2896       N  0.24622885  0.32531291  0.53918185    -0.39600
N2897       N  0.31001732  0.35571500  0.59748546    -0.39400
N2898       N  0.38700028  0.35707457  0.58845482    -0.37000
N2899       N  0.29454515  0.22780686  0.52745150    -0.38100
N2900       N  0.21927150  0.22850145  0.54300193    -0.39700
C2901       C  0.34874858  0.97320844  0.49108524    -0.04700
C2902       C  0.34749487  0.00165332  0.49462309     0.09500
C2903       C  0.33869438  0.01560922  0.48173990    -0.02100
C2904       C  0.33548848  0.00389686  0.46540380    -0.00300
C2905       C  0.32790996  0.97097192  0.46218194    -0.03900
C2906       C  0.33751338  0.95696554  0.47532955     0.03100
C2907       C  0.35464613  0.01722386  0.51169854     0.09900
C2908       C  0.33464480  0.04345369  0.48489622     0.35800
C2909       C  0.33671610  0.92642274  0.47314486     0.39200
C2910       C  0.38001496  0.05013754  0.51396069    -0.04300
C2911       C  0.38267816  0.06701218  0.52914368     0.02900
C2912       C  0.35994763  0.05091135  0.54267170    -0.03900
C2913       C  0.33172114  0.01949190  0.53854422    -0.00100
C2914       C  0.33183315  0.00155328  0.52460916    -0.02700
C2915       C  0.40474355  0.06591700  0.50094755     0.36600
C2916       C  0.29896852  0.00924574  0.54451263     0.40200
C2917       C  0.41008996  0.10025045  0.53078112     0.39300
C2918       C  0.30640513  0.96724450  0.52314687     0.36200
C2919       C  0.36083310  0.96029318  0.50383638     0.36900
C2920       C  0.35117988  0.02964855  0.45301353     0.40200
N2921       N  0.43228280  0.12675915  0.53134886    -0.37900
N2922       N  0.42448921  0.07831939  0.49057886    -0.39500
N2923       N  0.27211538  0.00136321  0.54770798    -0.37200
N2924       N  0.28639085  0.93977581  0.52246357    -0.39600
N2925       N  0.33134003  0.06557119  0.48737530    -0.39400
N2926       N  0.36598956  0.05120255  0.44385871    -0.37000
N2927       N  0.33746565  0.90251463  0.47254820    -0.38100
N2928       N  0.37045276  0.95004021  0.51404619    -0.39700
C2929       C  0.51560307  0.10571005  0.59381945    -0.04700
C2930       C  0.48372874  0.07970911  0.59740314     0.09500
C2931       C  0.48025746  0.05488623  0.60834574    -0.02100
C2932       C  0.50775634  0.05781287  0.61711393    -0.00300
C2933       C  0.53983305  0.08677745  0.61560352    -0.03900
C2934       C  0.54337318  0.10846523  0.60212143     0.03100
C2935       C  0.45424690  0.07659973  0.58815076     0.09900
C2936       C  0.44825182  0.02532101  0.60992752     0.35800
C2937       C  0.57526236  0.13414661  0.59636702     0.39200
C2938       C  0.44843230  0.06605030  0.57144573    -0.04300
C2939       C  0.41994288  0.06086173  0.56279722     0.02900
C2940       C  0.39782586  0.07045751  0.56997864    -0.03900
C2941       C  0.40424238  0.08025463  0.58738606    -0.00100
C2942       C  0.43151601  0.08266564  0.59619569    -0.02700
C2943       C  0.47103437  0.05791970  0.56348981     0.36600
C2944       C  0.38385317  0.08941056  0.59665937     0.40200
C2945       C  0.41208799  0.03959746  0.54836604     0.39300
C2946       C  0.43644630  0.09183221  0.61378119     0.36200
C2947       C  0.51983397  0.13024712  0.58160878     0.36900
C2948       C  0.50255353  0.02913193  0.62622875     0.40200
N2949       N  0.40742926  0.02149178  0.53753867    -0.37900
N2950       N  0.48895572  0.05137783  0.55722169    -0.39500
N2951       N  0.36906539  0.09742022  0.60487222    -0.37200
N2952       N  0.44002285  0.09890537  0.62783076    -0.39600
N2953       N  0.42278006  0.00165998  0.61101650    -0.39400
N2954       N  0.49704656  0.00560520  0.63332309    -0.37000
N2955       N  0.59947148  0.15509655  0.59074007    -0.38100
N2956       N  0.52332510  0.14982952  0.57187297    -0.39700
C2957       C  0.34661214  0.13713059  0.54580026    -0.04700
C2958       C  0.36914624  0.16509209  0.55481084     0.09500
C2959       C  0.39306704  0.16294098  0.56421483    -0.02100
C2960       C  0.39509965  0.13394702  0.56415654    -0.00300
C2961       C  0.36878051  0.10297464  0.55776614    -0.03900
C2962       C  0.34562354  0.10664899  0.54742898     0.03100
C2963       C  0.36862279  0.19716390  0.55358484     0.09900
C2964       C  0.41655232  0.19132633  0.57380699     0.35800
C2965       C  0.32109650  0.08060202  0.53714306     0.39200
C2966       C  0.34254576  0.19952516  0.56036401    -0.04300
C2967       C  0.34214834  0.22937520  0.55984025     0.02900
C2968       C  0.36707505  0.25842874  0.55094483    -0.03900
C2969       C  0.39392259  0.25518675  0.54463030    -0.00100
C2970       C  0.39399893  0.22514004  0.54557366    -0.02700
C2971       C  0.31562779  0.17075749  0.56839013     0.36600
C2972       C  0.42219426  0.28205876  0.53643943     0.40200
C2973       C  0.31725973  0.22910543  0.57056411     0.39300
C2974       C  0.42008145  0.22251103  0.53754775     0.36200
C2975       C  0.32428943  0.14004816  0.53443234     0.36900
C2976       C  0.42724018  0.13932538  0.56815302     0.40200
N2977       N  0.29716514  0.22726713  0.57953723    -0.37900
N2978       N  0.29357170  0.14821976  0.57462669    -0.39500
N2979       N  0.44570252  0.30142563  0.52953993    -0.37200
N2980       N  0.44075411  0.22029796  0.53112699    -0.39600
N2981       N  0.43521083  0.21395138  0.58146432    -0.39400
N2982       N  0.45361438  0.14519599  0.57103935    -0.37000
N2983       N  0.30138523  0.06276371  0.52778987    -0.38100
N2984       N  0.30659744  0.14246759  0.52539607    -0.39700
C2985       C  0.21848812  0.93606646  0.58069586    -0.04700
C2986       C  0.23988637  0.96225748  0.59121777     0.09500
C2987       C  0.23022305  0.96240513  0.60779793    -0.02100
C2988       C  0.19973237  0.93691202  0.61397086    -0.00300
C2989       C  0.17692169  0.90958782  0.60355840    -0.03900
C2990       C  0.18677905  0.91129379  0.58629319     0.03100
C2991       C  0.27291924  0.98994109  0.58515981     0.09900
C2992       C  0.25298274  0.98841543  0.61896127     0.35800
C2993       C  0.16465870  0.89004058  0.57336301     0.39200
C2994       C  0.27870068  0.02197449  0.58322295    -0.04300
C2995       C  0.31002846  0.04834596  0.57823053     0.02900
C2996       C  0.33545530  0.04258153  0.57262265    -0.03900
C2997       C  0.33009382  0.01051440  0.57684515    -0.00100
C2998       C  0.29939869  0.98501667  0.58298165    -0.02700
C2999       C  0.25159236  0.02752351  0.58563425     0.36600
C3000       C  0.35497158  0.00174597  0.57482757     0.40200
C3001       C  0.31571819  0.08092006  0.58074260     0.39300
C3002       C  0.29488225  0.95299490  0.58662000     0.36200
C3003       C  0.22925820  0.93377333  0.56398120     0.36900
C3004       C  0.19383876  0.93914849  0.63163610     0.40200
N3005       N  0.31971092  0.10657256  0.58355306    -0.37900
N3006       N  0.22981141  0.03171335  0.58741436    -0.39500
N3007       N  0.37297104  0.99215051  0.57420492    -0.37200
N3008       N  0.29219506  0.92780888  0.58925446    -0.39600
N3009       N  0.27116182  0.00909987  0.62778986    -0.39400
N3010       N  0.19141759  0.94335863  0.64572144    -0.37000
N3011       N  0.14784316  0.87422635  0.56248490    -0.38100
N3012       N  0.23710171  0.93052863  0.55071354    -0.39700
C3013       C  0.97432106  0.66461167  0.50867381    -0.04700
C3014       C  0.00864387  0.67823752  0.50839456     0.09500
C3015       C  0.02445465  0.68179274  0.52377403    -0.02100
C3016       C  0.00617952  0.67104118  0.53892847    -0.00300
C3017       C  0.97245276  0.66352825  0.53999959    -0.03900
C3018       C  0.95745142  0.66166882  0.52393899     0.03100
C3019       C  0.02771360  0.69200609  0.49210655     0.09900
C3020       C  0.05996934  0.69771309  0.52424502     0.35800
C3021       C  0.92704631  0.66135642  0.52178108     0.39200
C3022       C  0.02327782  0.71454617  0.48291709    -0.04300
C3023       C  0.03047451  0.71820155  0.46579282     0.02900
C3024       C  0.05787245  0.71651653  0.45939832    -0.03900
C3025       C  0.06582408  0.69638590  0.46960457    -0.00100
C3026       C  0.04813063  0.68159443  0.48482038    -0.02700
C3027       C  0.00713509  0.73064993  0.49014456     0.36600
C3028       C  0.09290551  0.69171230  0.46560517     0.40200
C3029       C  0.00200081  0.71020175  0.45573993     0.39300
C3030       C  0.05138380  0.65618138  0.49297260     0.36200
C3031       C  0.95642117  0.65558006  0.49288952     0.36900
C3032       C  0.02302842  0.66757591  0.55323808     0.40200
N3033       N  0.97804243  0.70317488  0.44864374    -0.37900
N3034       N  0.99443968  0.74380331  0.49573488    -0.39500
N3035       N  0.11456947  0.68753158  0.46329216    -0.37200
N3036       N  0.05398536  0.63587086  0.49946381    -0.39600
N3037       N  0.08828553  0.71047922  0.52471768    -0.39400
N3038       N  0.03744236  0.66441601  0.56403131    -0.37000
N3039       N  0.90376855  0.66241597  0.51870664    -0.38100
N3040       N  0.94204543  0.64846301  0.48038880    -0.39700
C3041       C  0.95309701  0.57905481  0.57292968    -0.04700
C3042       C  0.93902258  0.57346393  0.58901106     0.09500
C3043       C  0.92788981  0.59416486  0.59456037    -0.02100
C3044       C  0.93299418  0.62164923  0.58483300    -0.00300
C3045       C  0.94948274  0.62953639  0.56870165    -0.03900
C3046       C  0.95582039  0.60460363  0.56243485     0.03100
C3047       C  0.93236138  0.54340527  0.59922499     0.09900
C3048       C  0.91101354  0.58706657  0.61061625     0.35800
C3049       C  0.96092939  0.60092511  0.54480207     0.39200
C3050       C  0.94998118  0.54616536  0.61389436    -0.04300
C3051       C  0.94167055  0.51829838  0.62413971     0.02900
C3052       C  0.91905318  0.48513355  0.61844479    -0.03900
C3053       C  0.90184639  0.48345728  0.60313989    -0.00100
C3054       C  0.90733227  0.51200392  0.59442854    -0.02700
C3055       C  0.97662056  0.57832028  0.61882563     0.36600
C3056       C  0.87895630  0.45267936  0.59522051     0.40200
C3057       C  0.95335937  0.52635521  0.64122661     0.39300
C3058       C  0.88694241  0.50914363  0.58018438     0.36200
C3059       C  0.96362031  0.55713655  0.56673089     0.36900
C3060       C  0.92132812  0.64155752  0.59234080     0.40200
N3061       N  0.96263438  0.53513710  0.65473346    -0.37900
N3062       N  0.99808704  0.60357834  0.62302056    -0.39500
N3063       N  0.86064986  0.42989060  0.58756627    -0.37200
N3064       N  0.87076089  0.50714998  0.56888305    -0.39600
N3065       N  0.89761560  0.58138078  0.62341447    -0.39400
N3066       N  0.91073694  0.65547591  0.59930853    -0.37000
N3067       N  0.96454253  0.59656500  0.53087039    -0.38100
N3068       N  0.97191771  0.53978523  0.56155783    -0.39700
C3069       C  0.02959639  0.73137730  0.58672839    -0.04700
C3070       C  0.04143743  0.75915900  0.57639429     0.09500
C3071       C  0.02611938  0.75589929  0.56092852    -0.02100
C3072       C  0.99746517  0.72616650  0.55645995    -0.00300
C3073       C  0.98576743  0.69628509  0.56609547    -0.03900
C3074       C  0.00389682  0.70006256  0.58132946     0.03100
C3075       C  0.06839667  0.79246546  0.58248496     0.09900
C3076       C  0.03964935  0.78385623  0.54963293     0.35800
C3077       C  0.99935682  0.67300637  0.59155636     0.39200
C3078       C  0.10068164  0.79944118  0.58457280    -0.04300
C3079       C  0.12486639  0.82889853  0.59242669     0.02900
C3080       C  0.11740223  0.85274363  0.59902161    -0.03900
C3081       C  0.08384311  0.84491790  0.59598670    -0.00100
C3082       C  0.06079931  0.81616275  0.58724480    -0.02700
C3083       C  0.10896701  0.77570505  0.57855069     0.36600
C3084       C  0.06890819  0.86158332  0.60385214     0.40200
C3085       C  0.15749865  0.83357123  0.59327743     0.39300
C3086       C  0.02768806  0.80963075  0.58417752     0.36200
C3087       C  0.04439912  0.73513525  0.60316623     0.36900
C3088       C  0.97919307  0.72801849  0.54236109     0.40200
N3089       N  0.18266513  0.83521000  0.59277258    -0.37900
N3090       N  0.11544013  0.75670425  0.57378818    -0.39500
N3091       N  0.05479326  0.87277354  0.61003363    -0.37200
N3092       N  0.00159182  0.80487798  0.58166357    -0.39600
N3093       N  0.05048057  0.80613993  0.54065862    -0.39400
N3094       N  0.96528721  0.73151775  0.53142749    -0.37000
N3095       N  0.99821410  0.65302156  0.60028651    -0.38100
N3096       N  0.05617883  0.73812699  0.61623514    -0.39700
C3097       C  0.69815370  0.65308003  0.51158135    -0.04700
C3098       C  0.69402414  0.68027889  0.50953545     0.09500
C3099       C  0.70567660  0.70395102  0.52226518    -0.02100
C3100       C  0.72295326  0.70168213  0.53612239    -0.00300
C3101       C  0.72260317  0.67176402  0.54008135    -0.03900
C3102       C  0.71310863  0.64927934  0.52628904     0.03100
C3103       C  0.68680309  0.68923524  0.49239180     0.09900
C3104       C  0.70330630  0.73307931  0.52017525     0.35800
C3105       C  0.71822515  0.62181221  0.52678135     0.39200
C3106       C  0.65967064  0.69328659  0.48940076    -0.04300
C3107       C  0.65629045  0.70628917  0.47380957     0.02900
C3108       C  0.67933325  0.71408071  0.46037058    -0.03900
C3109       C  0.70968655  0.71657672  0.46564089    -0.00100
C3110       C  0.71161080  0.70083852  0.48017976    -0.02700
C3111       C  0.63474656  0.68332757  0.50230673     0.36600
C3112       C  0.74125813  0.74297877  0.45981310     0.40200
C3113       C  0.62902639  0.71161214  0.47203694     0.39300
C3114       C  0.74152331  0.70033893  0.48347479     0.36200
C3115       C  0.68604170  0.62837266  0.49852248     0.36900
C3116       C  0.74807898  0.73328260  0.54252855     0.40200
N3117       N  0.60712554  0.71585182  0.47143187    -0.37900
N3118       N  0.61488030  0.67536689  0.51262444    -0.39500
N3119       N  0.76646247  0.76532610  0.45622963    -0.37200
N3120       N  0.76530978  0.69995947  0.48605470    -0.39600
N3121       N  0.70130352  0.75617508  0.51856756    -0.39400
N3122       N  0.76903501  0.75908296  0.54638648    -0.37000
N3123       N  0.72207591  0.59970961  0.52613199    -0.38100
N3124       N  0.67606625  0.60863739  0.48811627    -0.39700
C3125       C  0.65194851  0.58193735  0.57209445    -0.04700
C3126       C  0.66183227  0.57467078  0.58725786     0.09500
C3127       C  0.69286179  0.59732752  0.59359690    -0.02100
C3128       C  0.71392626  0.62710102  0.58500255    -0.00300
C3129       C  0.70659930  0.63361031  0.56827797    -0.03900
C3130       C  0.67363216  0.61036201  0.56252912     0.03100
C3131       C  0.63871743  0.54383333  0.59708041     0.09900
C3132       C  0.70366173  0.58928596  0.60898302     0.35800
C3133       C  0.65861174  0.61571445  0.54805965     0.39200
C3134       C  0.63082017  0.51283835  0.59121287    -0.04300
C3135       C  0.60947127  0.48388199  0.60040502     0.02900
C3136       C  0.59494412  0.48473269  0.61624265    -0.03900
C3137       C  0.60122005  0.51703271  0.62095219    -0.00100
C3138       C  0.62382572  0.54571238  0.61191927    -0.02700
C3139       C  0.64538023  0.51071572  0.57554107     0.36600
C3140       C  0.58289325  0.52247174  0.63387878     0.40200
C3141       C  0.60503867  0.45390763  0.59323284     0.39300
C3142       C  0.63098880  0.57781718  0.61758197     0.36200
C3143       C  0.61829099  0.56018220  0.56664556     0.36900
C3144       C  0.74385195  0.64955860  0.59380506     0.40200
N3145       N  0.60416449  0.43223006  0.58615377    -0.37900
N3146       N  0.65650593  0.50854578  0.56302196    -0.39500
N3147       N  0.56873063  0.52805204  0.64390569    -0.37200
N3148       N  0.63689872  0.60341046  0.62208691    -0.39600
N3149       N  0.71231030  0.58278022  0.62116226    -0.39400
N3150       N  0.76648805  0.66541641  0.60216349    -0.37000
N3151       N  0.64405474  0.61835730  0.53715290    -0.38100
N3152       N  0.59143331  0.54287835  0.56245707    -0.39700
C3153       C  0.79949458  0.63662622  0.56312921    -0.04700
C3154       C  0.82728590  0.65982050  0.55407474     0.09500
C3155       C  0.82322145  0.68137696  0.54354508    -0.02100
C3156       C  0.79381453  0.68299678  0.54406896    -0.00300
C3157       C  0.76592409  0.66090068  0.55436102    -0.03900
C3158       C  0.76861468  0.63404802  0.56089442     0.03100
C3159       C  0.85995574  0.66042288  0.55512673     0.09900
C3160       C  0.84961939  0.70206563  0.53203939     0.35800
C3161       C  0.74079783  0.60090618  0.56175093     0.39200
C3162       C  0.86237360  0.63301175  0.55049411    -0.04300
C3163       C  0.89244739  0.63309265  0.55214831     0.02900
C3164       C  0.92229253  0.66151163  0.55792925    -0.03900
C3165       C  0.91762999  0.68726634  0.56453875    -0.00100
C3166       C  0.88825264  0.68771340  0.56178254    -0.02700
C3167       C  0.83410285  0.60502424  0.54288881     0.36600
C3168       C  0.93992499  0.71150913  0.57649961     0.40200
C3169       C  0.89200344  0.60369804  0.54683748     0.39300
C3170       C  0.88761407  0.71702822  0.56616335     0.36200
C3171       C  0.80210102  0.61439160  0.57461373     0.36900
C3172       C  0.79310188  0.70653434  0.53291567     0.40200
N3173       N  0.88980456  0.57948804  0.54238924    -0.37900
N3174       N  0.81159049  0.58268446  0.53685330    -0.39500
N3175       N  0.95646244  0.73069701  0.58640674    -0.37200
N3176       N  0.88881171  0.74131896  0.56944514    -0.39600
N3177       N  0.87069785  0.71849266  0.52288056    -0.39400
N3178       N  0.79481144  0.72532227  0.52312932    -0.37000
N3179       N  0.71939479  0.57397837  0.56218684    -0.38100
N3180       N  0.80412702  0.59668098  0.58380291    -0.39700
C3181       C  0.77900278  0.75005310  0.58300593    -0.04700
C3182       C  0.75302607  0.75583274  0.58553966     0.09500
C3183       C  0.72099190  0.73028560  0.58234578    -0.02100
C3184       C  0.71498502  0.70076133  0.57468549    -0.00300
C3185       C  0.74143878  0.69536843  0.57008302    -0.03900
C3186       C  0.77334675  0.71993987  0.57608594     0.03100
C3187       C  0.75877708  0.78765332  0.59309439     0.09900
C3188       C  0.69380264  0.73463539  0.58703183     0.35800
C3189       C  0.80045813  0.71445568  0.57696536     0.39200
C3190       C  0.75639847  0.81109306  0.58336791    -0.04300
C3191       C  0.76038544  0.84030626  0.59064647     0.02900
C3192       C  0.76774339  0.84744046  0.60823753    -0.03900
C3193       C  0.76895625  0.82216929  0.61785025    -0.00100
C3194       C  0.76402017  0.79295633  0.61036241    -0.02700
C3195       C  0.74785640  0.80432652  0.56575737     0.36600
C3196       C  0.77758610  0.82598903  0.63548299     0.40200
C3197       C  0.75380196  0.86052326  0.57963859     0.39300
C3198       C  0.76379104  0.76753141  0.62062465     0.36200
C3199       C  0.81207339  0.77555036  0.58742994     0.36900
C3200       C  0.68081238  0.67729806  0.57127935     0.40200
N3201       N  0.74777313  0.87540790  0.57034228    -0.37900
N3202       N  0.74050169  0.79961339  0.55176217    -0.39500
N3203       N  0.78471193  0.82657964  0.64940250    -0.37200
N3204       N  0.76346950  0.74719269  0.62873548    -0.39600
N3205       N  0.67222508  0.73809539  0.59083715    -0.39400
N3206       N  0.65275525  0.66060249  0.56952254    -0.37000
N3207       N  0.82228229  0.71049100  0.57893797    -0.38100
N3208       N  0.83856433  0.79560305  0.59091042    -0.39700
C3209       C  0.95330327  0.50943054  0.82441968    -0.04700
C3210       C  0.94807240  0.48369800  0.81369941     0.09500
C3211       C  0.92882243  0.45149960  0.81964441    -0.02100
C3212       C  0.91492852  0.44476338  0.83598943    -0.00300
C3213       C  0.91961405  0.47042160  0.84753638    -0.03900
C3214       C  0.93970687  0.50340960  0.84099567     0.03100
C3215       C  0.96532506  0.49010941  0.79671738     0.09900
C3216       C  0.92392340  0.42457079  0.80895560     0.35800
C3217       C  0.94592018  0.53237823  0.85008138     0.39200
C3218       C  0.99869218  0.50016128  0.79607685    -0.04300
C3219       C  0.01392385  0.49948784  0.78081064     0.02900
C3220       C  0.99705392  0.49172134  0.76479774    -0.03900
C3221       C  0.96209876  0.47873186  0.76630086    -0.00100
C3222       C  0.94746033  0.48043193  0.78164027    -0.02700
C3223       C  0.01711427  0.50888551  0.81171305     0.36600
C3224       C  0.93916847  0.45766389  0.75357816     0.40200
C3225       C  0.04378609  0.49892199  0.78334516     0.39300
C3226       C  0.91307496  0.47084006  0.78212278     0.36200
C3227       C  0.97254151  0.54269354  0.81802248     0.36900
C3228       C  0.89819476  0.41051486  0.84089004     0.40200
N3229       N  0.06630466  0.49702505  0.78707659    -0.37900
N3230       N  0.03192779  0.51585190  0.82407321    -0.39500
N3231       N  0.92005367  0.44032935  0.74384212    -0.37200
N3232       N  0.88572835  0.46338333  0.78258304    -0.39600
N3233       N  0.91939625  0.40260734  0.80072713    -0.39400
N3234       N  0.88640666  0.38280831  0.84360070    -0.37000
N3235       N  0.95159698  0.55677971  0.85625844    -0.38100
N3236       N  0.98786376  0.56913932  0.81288493    -0.39700
C3237       C  0.81835304  0.43508625  0.83970384    -0.04700
C3238       C  0.79742844  0.40188849  0.84345581     0.09500
C3239       C  0.80848619  0.38625070  0.85418945    -0.02100
C3240       C  0.84017651  0.40362901  0.86159148    -0.00300
C3241       C  0.86250263  0.43817862  0.85822942    -0.03900
C3242       C  0.85041081  0.45281067  0.84644906     0.03100
C3243       C  0.76336803  0.38362831  0.83609730     0.09900
C3244       C  0.78700432  0.35142090  0.85750161     0.35800
C3245       C  0.86871909  0.48745831  0.84234835     0.39200
C3246       C  0.75907371  0.37780064  0.81878908    -0.04300
C3247       C  0.72784223  0.36530156  0.81136996     0.02900
C3248       C  0.69834997  0.35107278  0.82144463    -0.03900
C3249       C  0.70377278  0.35785774  0.83928074    -0.00100
C3250       C  0.73579147  0.37480861  0.84617581    -0.02700
C3251       C  0.78749603  0.38589803  0.80838661     0.36600
C3252       C  0.67704981  0.34545636  0.85135769     0.40200
C3253       C  0.72877155  0.37296995  0.79376949     0.39300
C3254       C  0.74038204  0.38229378  0.86399640     0.36200
C3255       C  0.80591366  0.45165813  0.82942066     0.36900
C3256       C  0.84834833  0.38329949  0.87149104     0.40200
N3257       N  0.73121592  0.38096394  0.77988570    -0.37900
N3258       N  0.81010471  0.39231023  0.80012402    -0.39500
N3259       N  0.65705247  0.33557356  0.86169704    -0.37200
N3260       N  0.74388914  0.38795444  0.87821010    -0.39600
N3261       N  0.77055430  0.32380460  0.86048846    -0.39400
N3262       N  0.85242463  0.36462313  0.87877540    -0.37000
N3263       N  0.88088559  0.51477086  0.83861460    -0.38100
N3264       N  0.79583595  0.46471593  0.82130671    -0.39700
C3265       C  0.65400665  0.34589788  0.76560369    -0.04700
C3266       C  0.66827394  0.32991833  0.75736914     0.09500
C3267       C  0.67662672  0.31069301  0.76721497    -0.02100
C3268       C  0.67389933  0.30997609  0.78506211    -0.00300
C3269       C  0.66114208  0.32769795  0.79389122    -0.03900
C3270       C  0.64744705  0.34208381  0.78317005     0.03100
C3271       C  0.67104727  0.33033993  0.73819402     0.09900
C3272       C  0.68844233  0.29153246  0.75887184     0.35800
C3273       C  0.62256719  0.34883895  0.78902683     0.39200
C3274       C  0.70167257  0.34583767  0.72988861    -0.04300
C3275       C  0.70407052  0.34630952  0.71197750     0.02900
C3276       C  0.67529756  0.32871567  0.70146685    -0.03900
C3277       C  0.64436022  0.31362763  0.71049087    -0.00100
C3278       C  0.64260076  0.31453242  0.72829972    -0.02700
C3279       C  0.73142081  0.36197484  0.73987065     0.36600
C3280       C  0.61316487  0.29393860  0.70207996     0.40200
C3281       C  0.73665182  0.36801791  0.70525452     0.39300
C3282       C  0.61084743  0.29742142  0.73668930     0.36200
C3283       C  0.64532404  0.36608237  0.75581371     0.36900
C3284       C  0.68475862  0.29058444  0.79384806     0.40200
N3285       N  0.76313636  0.38627946  0.70073798    -0.37900
N3286       N  0.75564307  0.37469559  0.74741422    -0.39500
N3287       N  0.58700148  0.27711610  0.69685848    -0.37200
N3288       N  0.58562387  0.28392254  0.74339002    -0.39600
N3289       N  0.69796667  0.27629610  0.75229671    -0.39400
N3290       N  0.69332216  0.27398316  0.79972484    -0.37000
N3291       N  0.60217420  0.35386999  0.79320244    -0.38100
N3292       N  0.63846624  0.38221984  0.74801376    -0.39700
C3293       C  0.54415362  0.50524337  0.79069359    -0.04700
C3294       C  0.53382941  0.47452483  0.79800023     0.09500
C3295       C  0.52385176  0.44776270  0.78694970    -0.02100
C3296       C  0.52072484  0.45133741  0.76943962    -0.00300
C3297       C  0.52006333  0.47897273  0.76315029    -0.03900
C3298       C  0.53849943  0.50782290  0.77340048     0.03100
C3299       C  0.54076478  0.47202698  0.81641270     0.09900
C3300       C  0.51707254  0.41644813  0.79355182     0.35800
C3301       C  0.55489920  0.54066992  0.76659705     0.39200
C3302       C  0.52641486  0.48029728  0.82978564    -0.04300
C3303       C  0.53387731  0.47764839  0.84690331     0.02900
C3304       C  0.55328771  0.46363330  0.85098788    -0.03900
C3305       C  0.57414230  0.46509359  0.83730895    -0.00100
C3306       C  0.56596423  0.46601399  0.82045417    -0.02700
C3307       C  0.50372141  0.49123101  0.82606813     0.36600
C3308       C  0.60846884  0.47581516  0.84005122     0.40200
C3309       C  0.52213996  0.48993871  0.86019381     0.39300
C3310       C  0.58622186  0.46431260  0.80720023     0.36200
C3311       C  0.56241895  0.53460914  0.80081688     0.36900
C3312       C  0.52051549  0.42741881  0.75812949     0.40200
N3313       N  0.51283697  0.49979428  0.87079406    -0.37900
N3314       N  0.48573516  0.50024706  0.82328361    -0.39500
N3315       N  0.63638001  0.48651890  0.84163815    -0.37200
N3316       N  0.60234680  0.46284843  0.79672579    -0.39600
N3317       N  0.51165174  0.39151462  0.79887686    -0.39400
N3318       N  0.52135878  0.40818108  0.74958707    -0.37000
N3319       N  0.56895394  0.56758301  0.76207462    -0.38100
N3320       N  0.57710452  0.55800519  0.80884095    -0.39700
C3321       C  0.62344363  0.42598432  0.86346702    -0.04700
C3322       C  0.60789805  0.40236016  0.85072070     0.09500
C3323       C  0.57531487  0.39221343  0.84666592    -0.02100
C3324       C  0.55783817  0.40364898  0.85582168    -0.00300
C3325       C  0.57446416  0.43220627  0.86639697    -0.03900
C3326       C  0.60768794  0.44187097  0.87082838     0.03100
C3327       C  0.62370405  0.38527643  0.84227213     0.09900
C3328       C  0.55941040  0.36971988  0.83272108     0.35800
C3329       C  0.62731485  0.46906524  0.88193006     0.39200
C3330       C  0.60887129  0.35125719  0.84412249    -0.04300
C3331       C  0.61528673  0.33260951  0.83258647     0.02900
C3332       C  0.64365380  0.34783322  0.82169086    -0.03900
C3333       C  0.65911297  0.38299859  0.82034804    -0.00100
C3334       C  0.64832772  0.40092417  0.83001384    -0.02700
C3335       C  0.58499326  0.33490264  0.85754669     0.36600
C3336       C  0.68496730  0.40159476  0.80824523     0.40200
C3337       C  0.58831958  0.29940413  0.83080098     0.39300
C3338       C  0.66268172  0.43575623  0.82713127     0.36200
C3339       C  0.65644257  0.43504918  0.86839446     0.36900
C3340       C  0.52253774  0.38473198  0.85381199     0.40200
N3341       N  0.56444595  0.27400571  0.83020850    -0.37900
N3342       N  0.56596507  0.32193811  0.86817687    -0.39500
N3343       N  0.70506092  0.41823645  0.79869266    -0.37200
N3344       N  0.67480844  0.46351653  0.82451537    -0.39600
N3345       N  0.54671268  0.35186160  0.82165885    -0.39400
N3346       N  0.49469990  0.36688881  0.85189842    -0.37000
N3347       N  0.64441192  0.49054924  0.89066348    -0.38100
N3348       N  0.68282763  0.44228304  0.87221839    -0.39700
C3349       C  0.53955989  0.08333255  0.81933522    -0.04700
C3350       C  0.52452479  0.04939109  0.81702284     0.09500
C3351       C  0.50936730  0.02896787  0.83124981    -0.02100
C3352       C  0.51258174  0.04292276  0.84766559    -0.00300
C3353       C  0.53026759  0.07772363  0.84997382    -0.03900
C3354       C  0.53597873  0.09562498  0.83459964     0.03100
C3355       C  0.52275370  0.03635606  0.79932949     0.09900
C3356       C  0.49168449  0.99376927  0.82916974     0.35800
C3357       C  0.52669596  0.12015459  0.83306047     0.39200
C3358       C  0.54149107  0.02237528  0.79470979    -0.04300
C3359       C  0.54277883  0.01342014  0.77774967     0.02900
C3360       C  0.52367340  0.01679430  0.76463605    -0.03900
C3361       C  0.50967812  0.03629700  0.76936796    -0.00100
C3362       C  0.50696173  0.04334303  0.78641201    -0.02700
C3363       C  0.55959576  0.01654103  0.80753589     0.36600
C3364       C  0.49896608  0.05089485  0.75687334     0.40200
C3365       C  0.56658201  0.00371059  0.77474441     0.39300
C3366       C  0.48754952  0.05804912  0.79067921     0.36200
C3367       C  0.55671400  0.10605151  0.80568273     0.36900
C3368       C  0.49829282  0.02141729  0.86200247     0.40200
N3369       N  0.58703915  0.99732215  0.77404948    -0.37900
N3370       N  0.57425531  0.01087434  0.81713632    -0.39500
N3371       N  0.49133976  0.06466748  0.74770575    -0.37200
N3372       N  0.47225409  0.06994393  0.79404413    -0.39600
N3373       N  0.47770473  0.96560217  0.82760856    -0.39400
N3374       N  0.48671326  0.00397272  0.87334870    -0.37000
N3375       N  0.51707535  0.13799948  0.83180850    -0.38100
N3376       N  0.57041752  0.12423881  0.79483874    -0.39700
C3377       C  0.60424242  0.17793088  0.84553466    -0.04700
C3378       C  0.59116048  0.19823541  0.84743899     0.09500
C3379       C  0.56472218  0.18865875  0.85856624    -0.02100
C3380       C  0.54895803  0.15720723  0.86644344    -0.00300
C3381       C  0.56007717  0.13449194  0.86348753    -0.03900
C3382       C  0.59029349  0.14753650  0.85393929     0.03100
C3383       C  0.60792649  0.23104952  0.83868664     0.09900
C3384       C  0.55355667  0.21142700  0.86178672     0.35800
C3385       C  0.60697448  0.12957333  0.85107407     0.39200
C3386       C  0.59734400  0.23532012  0.82286198    -0.04300
C3387       C  0.61486392  0.26589639  0.81429777     0.02900
C3388       C  0.64485268  0.29250146  0.82105219    -0.03900
C3389       C  0.65880384  0.28280263  0.83416341    -0.00100
C3390       C  0.63877706  0.25565016  0.84442623    -0.02700
C3391       C  0.56806211  0.20868649  0.81527912     0.36600
C3392       C  0.69339373  0.29353139  0.83449419     0.40200
C3393       C  0.60016814  0.26931248  0.79905331     0.39300
C3394       C  0.65159861  0.25131535  0.86012252     0.36200
C3395       C  0.63235341  0.18841212  0.83441754     0.36900
C3396       C  0.52175239  0.14991965  0.87740914     0.40200
N3397       N  0.58742538  0.27070606  0.78698320    -0.37900
N3398       N  0.54508465  0.18856851  0.80839941    -0.39500
N3399       N  0.72069733  0.30085078  0.83455811    -0.37200
N3400       N  0.66173680  0.24779650  0.87263156    -0.39600
N3401       N  0.54471550  0.22959095  0.86445755    -0.39400
N3402       N  0.50080787  0.14639058  0.88624728    -0.37000
N3403       N  0.62265496  0.11797941  0.84796007    -0.38100
N3404       N  0.65471533  0.19689386  0.82561259    -0.39700
C3405       C  0.95710921  0.30876977  0.98837205    -0.04700
C3406       C  0.99159820  0.32725072  0.98905470     0.09500
C3407       C  0.00893122  0.34203141  0.97424655    -0.02100
C3408       C  0.99217489  0.33809787  0.95892788    -0.00300
C3409       C  0.95772617  0.31441751  0.95719524    -0.03900
C3410       C  0.94027596  0.30415810  0.97294136     0.03100
C3411       C  0.00964734  0.33519015  0.00567403     0.09900
C3412       C  0.04436545  0.36345659  0.97502451     0.35800
C3413       C  0.90563518  0.29329992  0.97405743     0.39200
C3414       C  0.01902079  0.31416102  0.01251201    -0.04300
C3415       C  0.03730638  0.32218000  0.02761004     0.02900
C3416       C  0.04586282  0.35154198  0.03722963    -0.03900
C3417       C  0.03562837  0.37261539  0.02972194    -0.00100
C3418       C  0.01844947  0.36450152  0.01413878    -0.02700
C3419       C  0.00953079  0.28368036  0.00386032     0.36600
C3420       C  0.03918629  0.40150953  0.03778023     0.40200
C3421       C  0.04767779  0.29954774  0.03278848     0.39300
C3422       C  0.00856400  0.38614705  0.00681769     0.36200
C3423       C  0.93874668  0.29446697  0.00370272     0.36900
C3424       C  0.00898056  0.36547646  0.94754531     0.40200
N3425       N  0.05595649  0.28126160  0.03629717    -0.37900
N3426       N  0.00182554  0.25929560  0.99705188    -0.39500
N3427       N  0.04004259  0.42445541  0.04331595    -0.37200
N3428       N  0.00065851  0.40329522  0.00095759    -0.39600
N3429       N  0.07255186  0.38066474  0.97563181    -0.39400
N3430       N  0.02376127  0.38949964  0.93994584    -0.37000
N3431       N  0.87818785  0.28512543  0.97544723    -0.38100
N3432       N  0.92402453  0.28269298  0.01587027    -0.39700
C3433       C  0.94306326  0.41328818  0.88389617    -0.04700
C3434       C  0.92519566  0.39945443  0.89872451     0.09500
C3435       C  0.90293718  0.40890043  0.90398073    -0.02100
C3436       C  0.89619208  0.42936901  0.89381515    -0.00300
C3437       C  0.91092974  0.44054459  0.87740663    -0.03900
C3438       C  0.93753056  0.43471328  0.87383623     0.03100
C3439       C  0.92991095  0.37506187  0.90890141     0.09900
C3440       C  0.88506250  0.39567900  0.91962148     0.35800
C3441       C  0.96218474  0.45225221  0.86099185     0.39200
C3442       C  0.94252050  0.38249574  0.92530046    -0.04300
C3443       C  0.94222159  0.35815532  0.93574996     0.02900
C3444       C  0.93621532  0.32739647  0.92895091    -0.03900
C3445       C  0.92494605  0.32111821  0.91181302    -0.00100
C3446       C  0.92023622  0.34383146  0.90245362    -0.02700
C3447       C  0.95557484  0.41558329  0.93159335     0.36600
C3448       C  0.91723397  0.29105746  0.90335151     0.40200
C3449       C  0.94445984  0.36490719  0.95357836     0.39300
C3450       C  0.90497481  0.33480515  0.88601723     0.36200
C3451       C  0.96817843  0.40594145  0.87909542     0.36900
C3452       C  0.87140730  0.43559375  0.90037771     0.40200
N3453       N  0.94626272  0.37169071  0.96764343    -0.37900
N3454       N  0.96604720  0.44198505  0.93653460    -0.39500
N3455       N  0.91078775  0.26803556  0.89553795    -0.37200
N3456       N  0.89279987  0.32753211  0.87293309    -0.39600
N3457       N  0.87095020  0.38544438  0.93210921    -0.39400
N3458       N  0.85146382  0.43877432  0.90696921    -0.37000
N3459       N  0.98274391  0.46592801  0.85111359    -0.38100
N3460       N  0.98806238  0.40010404  0.87505417    -0.39700
C3461       C  0.03768502  0.25578906  0.90001511    -0.04700
C3462       C  0.04272058  0.27260618  0.91519897     0.09500
C3463       C  0.07265187  0.28386387  0.92368801    -0.02100
C3464       C  0.09723448  0.27794624  0.91720124    -0.00300
C3465       C  0.09069592  0.25675376  0.90298502    -0.03900
C3466       C  0.06038918  0.24713332  0.89419057     0.03100
C3467       C  0.01698049  0.28024218  0.92118791     0.09900
C3468       C  0.07822870  0.30201167  0.93916576     0.35800
C3469       C  0.05195611  0.22938718  0.87846290     0.39200
C3470       C  0.98537600  0.25454438  0.92559768    -0.04300
C3471       C  0.95880165  0.25998164  0.92653209     0.02900
C3472       C  0.96431384  0.29233511  0.92848362    -0.03900
C3473       C  0.99460257  0.31687225  0.92087457    -0.00100
C3474       C  0.02091983  0.31120572  0.91803439    -0.02700
C3475       C  0.97913826  0.22151949  0.92766532     0.36600
C3476       C  0.99705863  0.34499371  0.91240315     0.40200
C3477       C  0.92778549  0.23341946  0.92033502     0.39300
C3478       C  0.05147748  0.33670786  0.91067930     0.36200
C3479       C  0.00881234  0.24776679  0.89004521     0.36900
C3480       C  0.12982433  0.29748829  0.92417195     0.40200
N3481       N  0.90364481  0.21170416  0.91511529    -0.37900
N3482       N  0.97346311  0.19495005  0.92936711    -0.39500
N3483       N  0.00002572  0.36758156  0.90529410    -0.37200
N3484       N  0.07577756  0.35694681  0.90474598    -0.39600
N3485       N  0.08245725  0.31632930  0.95155070    -0.39400
N3486       N  0.15564091  0.31412625  0.92985878    -0.37000
N3487       N  0.04401354  0.21678569  0.86551201    -0.38100
N3488       N  0.98589463  0.24149714  0.88214078    -0.39700
C3489       C  0.66252626  0.03251210  0.98201937    -0.04700
C3490       C  0.67369708  0.01125948  0.98661828     0.09500
C3491       C  0.70114339  0.01428562  0.97807060    -0.02100
C3492       C  0.71825531  0.03945477  0.96621357    -0.00300
C3493       C  0.70357450  0.05610724  0.95873584    -0.03900
C3494       C  0.67718793  0.05484059  0.96834874     0.03100
C3495       C  0.66471762  0.99393183  0.00343672     0.09900
C3496       C  0.71450880  0.99404335  0.98297844     0.35800
C3497       C  0.66735575  0.07881557  0.96583938     0.39200
C3498       C  0.63777474  0.96174249  0.00596474    -0.04300
C3499       C  0.63314261  0.94552753  0.02183105     0.02900
C3500       C  0.65739135  0.96029271  0.03487559    -0.03900
C3501       C  0.68756098  0.98843314  0.02929819    -0.00100
C3502       C  0.68782646  0.00814175  0.01630307    -0.02700
C3503       C  0.61490624  0.94564902  0.99236844     0.36600
C3504       C  0.71919819  0.99139358  0.03206962     0.40200
C3505       C  0.60391125  0.91368696  0.02443513     0.39300
C3506       C  0.71528476  0.04155408  0.01487989     0.36200
C3507       C  0.63656008  0.03215149  0.99180390     0.36900
C3508       C  0.75346384  0.05360554  0.96585928     0.40200
N3509       N  0.58052933  0.88831854  0.02648035    -0.37900
N3510       N  0.59679137  0.93287898  0.98141007    -0.39500
N3511       N  0.74484649  0.99424017  0.03325763    -0.37200
N3512       N  0.73719316  0.06814674  0.01384698    -0.39600
N3513       N  0.72553419  0.97825873  0.98687429    -0.39400
N3514       N  0.78149163  0.06447554  0.96700488    -0.37000
N3515       N  0.65918306  0.09778462  0.96424841    -0.38100
N3516       N  0.61585165  0.03191265  0.99960718    -0.39700
C3517       C  0.63002973  0.05373975  0.92002411    -0.04700
C3518       C  0.63845648  0.08341640  0.91190374     0.09500
C3519       C  0.66967178  0.11075027  0.91529556    -0.02100
C3520       C  0.69136489  0.10866012  0.92680423    -0.00300
C3521       C  0.68678329  0.07750911  0.93208467    -0.03900
C3522       C  0.65332697  0.05059544  0.92995932     0.03100
C3523       C  0.61379350  0.08639566  0.90071926     0.09900
C3524       C  0.67947485  0.14184076  0.90723569     0.35800
C3525       C  0.64113545  0.01948321  0.93854402     0.39200
C3526       C  0.60173956  0.10702097  0.90502830    -0.04300
C3527       C  0.58058345  0.11149057  0.89407247     0.02900
C3528       C  0.56639496  0.09176564  0.87911933    -0.03900
C3529       C  0.57949141  0.07096143  0.87510929    -0.00100
C3530       C  0.60313246  0.06928211  0.88548548    -0.02700
C3531       C  0.61060782  0.12338025  0.92120984     0.36600
C3532       C  0.57336495  0.05361587  0.85948778     0.40200
C3533       C  0.57308738  0.13623680  0.89917170     0.39300
C3534       C  0.61803095  0.05080449  0.87981297     0.36200
C3535       C  0.59684071  0.02606776  0.91819701     0.36900
C3536       C  0.71351600  0.13895158  0.93544050     0.40200
N3537       N  0.56837232  0.15637110  0.90407814    -0.37900
N3538       N  0.61765459  0.13643103  0.93408693    -0.39500
N3539       N  0.57146772  0.03966819  0.84727823    -0.37200
N3540       N  0.62928569  0.03603719  0.87457884    -0.39600
N3541       N  0.68727633  0.16664548  0.90085042    -0.39400
N3542       N  0.73025609  0.16351579  0.94225109    -0.37000
N3543       N  0.63065581  0.99454317  0.94532626    -0.38100
N3544       N  0.57043118  0.00397126  0.91668855    -0.39700
C3545       C  0.84448934  0.23293227  0.93605492    -0.04700
C3546       C  0.84317773  0.20453463  0.94222951     0.09500
C3547       C  0.87150858  0.20839104  0.95019825    -0.02100
C3548       C  0.90130235  0.23942992  0.95072842    -0.00300
C3549       C  0.90465596  0.26771579  0.94207905    -0.03900
C3550       C  0.87375856  0.26420953  0.93707218     0.03100
C3551       C  0.81093182  0.17138082  0.94196361     0.09900
C3552       C  0.87047000  0.17977468  0.95729566     0.35800
C3553       C  0.86926325  0.29208672  0.93579152     0.39200
C3554       C  0.79662156  0.15504609  0.92677212    -0.04300
C3555       C  0.76585284  0.12495844  0.92655709     0.02900
C3556       C  0.74911289  0.10839827  0.94179692    -0.03900
C3557       C  0.76338072  0.12658390  0.95706323    -0.00100
C3558       C  0.79356798  0.15727800  0.95695529    -0.02700
C3559       C  0.81422576  0.16882282  0.91118945     0.36600
C3560       C  0.74662646  0.11697441  0.97307918     0.40200
C3561       C  0.75183074  0.11089463  0.91033364     0.39300
C3562       C  0.80633601  0.17552857  0.97248508     0.36200
C3563       C  0.81484734  0.23020537  0.92919329     0.36900
C3564       C  0.92876285  0.24112625  0.95969866     0.40200
N3565       N  0.74080290  0.10005857  0.89733316    -0.37900
N3566       N  0.82830683  0.17974521  0.89876134    -0.39500
N3567       N  0.73462760  0.11109391  0.98625414    -0.37200
N3568       N  0.81656810  0.19010143  0.98481723    -0.39600
N3569       N  0.86959132  0.15695074  0.96297779    -0.39400
N3570       N  0.95044973  0.24209997  0.96684212    -0.37000
N3571       N  0.86441629  0.31354452  0.93492086    -0.38100
N3572       N  0.79134970  0.22804533  0.92358073    -0.39700
C3573       C  0.69438917  0.98942226  0.92416092    -0.04700
C3574       C  0.72351044  0.98834184  0.92364454     0.09500
C3575       C  0.75327679  0.01867721  0.92571956    -0.02100
C3576       C  0.75307116  0.04815447  0.92931327    -0.00300
C3577       C  0.72260348  0.04835494  0.92993637    -0.03900
C3578       C  0.69592569  0.01967022  0.92310137     0.03100
C3579       C  0.72238858  0.95669091  0.91847706     0.09900
C3580       C  0.78447088  0.01999124  0.92483243     0.35800
C3581       C  0.68178964  0.02360275  0.90795188     0.39200
C3582       C  0.70532140  0.93975860  0.90387065    -0.04300
C3583       C  0.70033913  0.90853829  0.90016775     0.02900
C3584       C  0.72267870  0.89903179  0.90620608    -0.03900
C3585       C  0.73838092  0.91482090  0.92176097    -0.00100
C3586       C  0.73649697  0.94205721  0.92816299    -0.02700
C3587       C  0.69359383  0.95458337  0.89201160     0.36600
C3588       C  0.75623304  0.90371520  0.93172656     0.40200
C3589       C  0.66940709  0.88568956  0.89222382     0.39300
C3590       C  0.75017134  0.95564919  0.94446888     0.36200
C3591       C  0.66247801  0.95968472  0.92403177     0.36900
C3592       C  0.78505520  0.07741541  0.93145781     0.40200
N3593       N  0.64443678  0.86784716  0.88601680    -0.37900
N3594       N  0.68449791  0.96640841  0.88241291    -0.39500
N3595       N  0.77012782  0.89563687  0.94054965    -0.37200
N3596       N  0.76143968  0.96656607  0.95741761    -0.39600
N3597       N  0.80993999  0.02224779  0.92462953    -0.39400
N3598       N  0.81140419  0.09963541  0.93304205    -0.37000
N3599       N  0.67112745  0.02652276  0.89550993    -0.38100
N3600       N  0.63699188  0.93589697  0.92399719    -0.39700
C3601       C  0.32935834  0.35628064  0.01408566    -0.04700
C3602       C  0.30889463  0.32803450  0.00448517     0.09500
C3603       C  0.27615672  0.30831948  0.00955875    -0.02100
C3604       C  0.26480635  0.31401863  0.02496066    -0.00300
C3605       C  0.28667866  0.33915697  0.03665903    -0.03900
C3606       C  0.31859471  0.36217935  0.02983080     0.03100
C3607       C  0.32096028  0.31900493  0.98872151     0.09900
C3608       C  0.25393303  0.28116227  0.99881442     0.35800
C3609       C  0.34113747  0.39236762  0.03827535     0.39200
C3610       C  0.32444750  0.29132934  0.98836726    -0.04300
C3611       C  0.33306436  0.28089165  0.97340884     0.02900
C3612       C  0.33846031  0.29800430  0.95763187    -0.03900
C3613       C  0.33476047  0.32658444  0.95864959    -0.00100
C3614       C  0.32544406  0.33593504  0.97367989    -0.02700
C3615       C  0.31600272  0.27104252  0.00326659     0.36600
C3616       C  0.34315920  0.34944815  0.94486924     0.40200
C3617       C  0.33310976  0.25066302  0.97528418     0.39300
C3618       C  0.31894898  0.36269179  0.97354364     0.36200
C3619       C  0.36241676  0.37859549  0.00808603     0.36900
C3620       C  0.23002757  0.29271065  0.02798249     0.40200
N3621       N  0.33148624  0.22608248  0.97838213    -0.37900
N3622       N  0.30859358  0.25312414  0.01443882    -0.39500
N3623       N  0.35064298  0.36995926  0.93500242    -0.37200
N3624       N  0.31354552  0.38381313  0.97346946    -0.39600
N3625       N  0.23647909  0.25939333  0.99032338    -0.39400
N3626       N  0.20189529  0.27498753  0.02848978    -0.37000
N3627       N  0.35976994  0.41728181  0.04424068    -0.38100
N3628       N  0.38872442  0.39644358  0.00324229    -0.39700
C3629       C  0.42935934  0.36585664  0.92682043    -0.04700
C3630       C  0.43468107  0.35907423  0.91032480     0.09500
C3631       C  0.41195412  0.32826437  0.90369265    -0.02100
C3632       C  0.38303274  0.30548945  0.91271484    -0.00300
C3633       C  0.37583958  0.31191374  0.92948913    -0.03900
C3634       C  0.40205338  0.34231834  0.93663848     0.03100
C3635       C  0.46524283  0.38329075  0.90018125     0.09900
C3636       C  0.41842858  0.31998004  0.88711911     0.35800
C3637       C  0.40405728  0.35005845  0.95437201     0.39200
C3638       C  0.49620325  0.38764452  0.90381534    -0.04300
C3639       C  0.52470114  0.40966614  0.89430262     0.02900
C3640       C  0.52318438  0.42689846  0.87956278    -0.03900
C3641       C  0.48996558  0.41723125  0.87477729    -0.00100
C3642       C  0.46278674  0.39925571  0.88587943    -0.02700
C3643       C  0.49870712  0.36913044  0.91762970     0.36600
C3644       C  0.48042366  0.41791152  0.85762609     0.40200
C3645       C  0.55556046  0.41454550  0.90059922     0.39300
C3646       C  0.43136443  0.39602129  0.88204052     0.36200
C3647       C  0.45284205  0.39743769  0.93398213     0.36900
C3648       C  0.36037364  0.27672083  0.90327840     0.40200
N3649       N  0.57924247  0.41733741  0.90633885    -0.37900
N3650       N  0.50050308  0.35423244  0.92861607    -0.39500
N3651       N  0.47053940  0.41604540  0.84415081    -0.37200
N3652       N  0.40662859  0.39397757  0.87880714    -0.39600
N3653       N  0.42357888  0.31342443  0.87393100    -0.39400
N3654       N  0.34487599  0.25571138  0.89396520    -0.37000
N3655       N  0.40696786  0.35723270  0.96842065    -0.38100
N3656       N  0.47133514  0.42245602  0.93989578    -0.39700
C3657       C  0.24661338  0.24779367  0.93186450    -0.04700
C3658       C  0.24520279  0.27192803  0.92231697     0.09500
C3659       C  0.27559507  0.29917823  0.91734235    -0.02100
C3660       C  0.30549362  0.29922331  0.91916878    -0.00300
C3661       C  0.30832364  0.27809298  0.93117077    -0.03900
C3662       C  0.27706763  0.25324829  0.93820933     0.03100
C3663       C  0.21235545  0.26805914  0.91678008     0.09900
C3664       C  0.27656824  0.32823994  0.91086023     0.35800
C3665       C  0.27447584  0.23034414  0.95097256     0.39200
C3666       C  0.18560434  0.25877382  0.92792588    -0.04300
C3667       C  0.15387048  0.25015293  0.92170482     0.02900
C3668       C  0.14980885  0.25910727  0.90502232    -0.03900
C3669       C  0.18011442  0.27676546  0.89579149    -0.00100
C3670       C  0.20768532  0.27456346  0.90011958    -0.02700
C3671       C  0.19066546  0.25888592  0.94586084     0.36600
C3672       C  0.18837613  0.30509522  0.88568114     0.40200
C3673       C  0.12650016  0.23335543  0.93316714     0.39300
C3674       C  0.23065652  0.27853032  0.88694748     0.36200
C3675       C  0.21676783  0.21645309  0.93473895     0.36900
C3676       C  0.33222545  0.32240656  0.90865780     0.40200
N3677       N  0.10631005  0.22037810  0.94327156    -0.37900
N3678       N  0.19455545  0.25917022  0.96019428    -0.39500
N3679       N  0.19756705  0.32915801  0.87823278    -0.37200
N3680       N  0.24869197  0.28131273  0.87638687    -0.39600
N3681       N  0.27739001  0.35140645  0.90572012    -0.39400
N3682       N  0.35220739  0.34163671  0.89982465    -0.37000
N3683       N  0.26938911  0.21022601  0.96070990    -0.38100
N3684       N  0.19307763  0.19141715  0.93698288    -0.39700
C3685       C  0.32673652  0.97149910  0.01742677    -0.04700
C3686       C  0.30691430  0.98043887  0.00849854     0.09500
C3687       C  0.27314394  0.96345410  0.01221567    -0.02100
C3688       C  0.26036139  0.94036294  0.02549194    -0.00300
C3689       C  0.28154598  0.93859272  0.03765717    -0.03900
C3690       C  0.31360473  0.94888733  0.03102687     0.03100
C3691       C  0.31988272  0.00209943  0.99299866     0.09900
C3692       C  0.25101392  0.96827714  0.00177601     0.35800
C3693       C  0.33140888  0.93290695  0.03586209     0.39200
C3694       C  0.31897938  0.98816555  0.97739123    -0.04300
C3695       C  0.32946057  0.00748144  0.96261821     0.02900
C3696       C  0.33890221  0.04178343  0.96257948    -0.03900
C3697       C  0.34200657  0.05588338  0.97900667    -0.00100
C3698       C  0.33281531  0.03609558  0.99382421    -0.02700
C3699       C  0.30660072  0.95318386  0.97653676     0.36600
C3700       C  0.35302759  0.09010224  0.98153177     0.40200
C3701       C  0.33062387  0.99097372  0.94752632     0.39300
C3702       C  0.33598772  0.05057794  0.01022884     0.36200
C3703       C  0.36055740  0.98489932  0.01223585     0.36900
C3704       C  0.22679860  0.91368234  0.02363322     0.40200
N3705       N  0.33179311  0.97662089  0.93608320    -0.37900
N3706       N  0.29662243  0.92531943  0.97592109    -0.39500
N3707       N  0.36135528  0.11704632  0.98465131    -0.37200
N3708       N  0.33862244  0.06186044  0.02339469    -0.39600
N3709       N  0.23311899  0.97198348  0.99356824    -0.39400
N3710       N  0.20011397  0.89248845  0.02150327    -0.37000
N3711       N  0.34593879  0.92027295  0.03935641    -0.38100
N3712       N  0.38753899  0.99572230  0.00803652    -0.39700
C3713       C  0.48187151  0.08146955  0.90658378    -0.04700
C3714       C  0.45170902  0.07550427  0.89993389     0.09500
C3715       C  0.44767367  0.07010309  0.88240452    -0.02100
C3716       C  0.47482093  0.07640174  0.87175873    -0.00300
C3717       C  0.50607900  0.08344040  0.87867130    -0.03900
C3718       C  0.50434696  0.07794847  0.89642746     0.03100
C3719       C  0.42387111  0.07222805  0.91137288     0.09900
C3720       C  0.41515343  0.05696634  0.87527243     0.35800
C3721       C  0.51683930  0.05870995  0.90386686     0.39200
C3722       C  0.40722705  0.08936147  0.90824984    -0.04300
C3723       C  0.37911603  0.08304472  0.91794838     0.02900
C3724       C  0.37046987  0.06444904  0.93338639    -0.03900
C3725       C  0.39306848  0.05393057  0.93794018    -0.00100
C3726       C  0.41412246  0.05227942  0.92584893    -0.02700
C3727       C  0.41881866  0.11367171  0.89498385     0.36600
C3728       C  0.39981772  0.04949800  0.95516287     0.40200
C3729       C  0.35885508  0.09506748  0.91124000     0.39300
C3730       C  0.42530994  0.02937338  0.92848250     0.36200
C3731       C  0.49028799  0.09080555  0.92397578     0.36900
C3732       C  0.46763643  0.07176334  0.85401896     0.40200
N3733       N  0.34330762  0.10489200  0.90534647    -0.37900
N3734       N  0.42788941  0.13313215  0.88443456    -0.39500
N3735       N  0.40621191  0.04631077  0.96877160    -0.37200
N3736       N  0.43402835  0.01094531  0.93056520    -0.39600
N3737       N  0.38930320  0.04638986  0.86950142    -0.39400
N3738       N  0.45934313  0.06629204  0.84015492    -0.37000
N3739       N  0.52605283  0.04282416  0.90998693    -0.38100
N3740       N  0.49719369  0.09843495  0.93783447    -0.39700
C3741       C  0.33093051  0.19549225  0.93031125    -0.04700
C3742       C  0.35157326  0.19329050  0.94231417     0.09500
C3743       C  0.37239282  0.22222548  0.95130044    -0.02100
C3744       C  0.37241364  0.25198240  0.94825541    -0.00300
C3745       C  0.34574839  0.25221408  0.93960873    -0.03900
C3746       C  0.32548315  0.22243579  0.93001301     0.03100
C3747       C  0.34993867  0.16027867  0.94540014     0.09900
C3748       C  0.39218608  0.22110819  0.96485001     0.35800
C3749       C  0.29946438  0.21800224  0.91879411     0.39200
C3750       C  0.37764797  0.15633040  0.94523333    -0.04300
C3751       C  0.37412234  0.12481065  0.94801665     0.02900
C3752       C  0.34272286  0.09475158  0.94626778    -0.03900
C3753       C  0.31606779  0.10058731  0.94331044    -0.00100
C3754       C  0.31923854  0.13117794  0.94702126    -0.02700
C3755       C  0.40976072  0.18402690  0.94122049     0.36600
C3756       C  0.28871566  0.08056335  0.93233061     0.40200
C3757       C  0.40359796  0.12436459  0.95223620     0.39300
C3758       C  0.29001375  0.13256031  0.95076917     0.36200
C3759       C  0.31567520  0.16991350  0.91766669     0.36900
C3760       C  0.39929966  0.28125924  0.95560841     0.40200
N3761       N  0.42760729  0.12508910  0.95575097    -0.37900
N3762       N  0.43544025  0.20601727  0.93791761    -0.39500
N3763       N  0.26711459  0.06583662  0.92319106    -0.37200
N3764       N  0.26672477  0.13361877  0.95382333    -0.39600
N3765       N  0.40778541  0.22032180  0.97577532    -0.39400
N3766       N  0.42217200  0.30281167  0.96186268    -0.37000
N3767       N  0.27853757  0.21300739  0.90959109    -0.38100
N3768       N  0.30365562  0.14969785  0.90755021    -0.39700
C3769       C  0.26586730  0.99072026  0.91690214    -0.04700
C3770       C  0.23938195  0.97879075  0.92814605     0.09500
C3771       C  0.24422111  0.99396188  0.94376458    -0.02100
C3772       C  0.27529974  0.02085494  0.94825207    -0.00300
C3773       C  0.30414948  0.03206815  0.93763866    -0.03900
C3774       C  0.29812991  0.01497397  0.92183602     0.03100
C3775       C  0.20569493  0.95144994  0.92311642     0.09900
C3776       C  0.21621580  0.98263119  0.95495872     0.35800
C3777       C  0.32376428  0.01845514  0.91064342     0.39200
C3778       C  0.19555962  0.91827320  0.92586152    -0.04300
C3779       C  0.16571372  0.89291514  0.91869272     0.02900
C3780       C  0.14586226  0.90093668  0.90855297    -0.03900
C3781       C  0.15152002  0.93326551  0.91167593    -0.00100
C3782       C  0.18264033  0.95872346  0.91680791    -0.02700
C3783       C  0.21691304  0.91037550  0.93510004     0.36600
C3784       C  0.12512148  0.94022759  0.91249425     0.40200
C3785       C  0.15717344  0.85928438  0.92128585     0.39300
C3786       C  0.19035253  0.99242702  0.91609258     0.36200
C3787       C  0.25975989  0.97845443  0.89979848     0.36900
C3788       C  0.27616926  0.03773199  0.96363195     0.40200
N3789       N  0.15105307  0.83278601  0.92387371    -0.37900
N3790       N  0.23405237  0.90417446  0.94243692    -0.39500
N3791       N  0.10461009  0.94648621  0.91354144    -0.37200
N3792       N  0.19602036  0.01913471  0.91543044    -0.39600
N3793       N  0.19360007  0.97348822  0.96365051    -0.39400
N3794       N  0.27541019  0.05073060  0.97575717    -0.37000
N3795       N  0.34259678  0.01885087  0.90124256    -0.38100
N3796       N  0.25551651  0.96973590  0.88599430    -0.39700
C3797       C  0.98987537  0.67389601  0.97962093    -0.04700
C3798       C  0.97035854  0.65765801  0.99348996     0.09500
C3799       C  0.93605001  0.63914433  0.99127604    -0.02100
C3800       C  0.92200882  0.63670637  0.97507050    -0.00300
C3801       C  0.94194649  0.65693536  0.96125692    -0.03900
C3802       C  0.97553655  0.67957694  0.96576796     0.03100
C3803       C  0.98621882  0.66739997  0.01052512     0.09900
C3804       C  0.91552366  0.62153749  0.00552650     0.35800
C3805       C  0.99266349  0.71381505  0.96128472     0.39200
C3806       C  0.99247911  0.69721437  0.01734944    -0.04300
C3807       C  0.01343652  0.71120556  0.03127020     0.02900
C3808       C  0.02624754  0.69387298  0.04041006    -0.03900
C3809       C  0.01983040  0.66342790  0.03287207    -0.00100
C3810       C  0.00045714  0.65101461  0.01805647    -0.02700
C3811       C  0.97763125  0.71421543  0.00964739     0.36600
C3812       C  0.03143260  0.64308959  0.03978371     0.40200
C3813       C  0.02249590  0.74456870  0.03545613     0.39300
C3814       C  0.99464335  0.62074393  0.01043585     0.36200
C3815       C  0.02538029  0.68994829  0.98057843     0.36900
C3816       C  0.88745496  0.61274047  0.97312388     0.40200
N3817       N  0.02946497  0.77137860  0.03787139    -0.37900
N3818       N  0.96578745  0.72782588  0.00366040    -0.39500
N3819       N  0.03942086  0.62515725  0.04443001    -0.37200
N3820       N  0.98993228  0.59661687  0.00435161    -0.39600
N3821       N  0.89920889  0.60737971  0.01691259    -0.39400
N3822       N  0.85979306  0.59320738  0.97235661    -0.37000
N3823       N  0.00780978  0.74171176  0.95892503    -0.38100
N3824       N  0.05367610  0.70255174  0.98083123    -0.39700
C3825       C  0.91577304  0.59773056  0.90347195    -0.04700
C3826       C  0.91741854  0.57142029  0.91020478     0.09500
C3827       C  0.92202942  0.57094046  0.92756948    -0.02100
C3828       C  0.92684068  0.59734568  0.93809739    -0.00300
C3829       C  0.92292959  0.62381360  0.93180870    -0.03900
C3830       C  0.91636830  0.62218416  0.91397530     0.03100
C3831       C  0.91276865  0.54341865  0.89897052     0.09900
C3832       C  0.92229432  0.54287295  0.93462817     0.35800
C3833       C  0.90811600  0.64410618  0.90572556     0.39200
C3834       C  0.93890269  0.53860999  0.89522646    -0.04300
C3835       C  0.93441173  0.51217037  0.88486100     0.02900
C3836       C  0.90347546  0.49017501  0.87675145    -0.03900
C3837       C  0.87658992  0.49483533  0.88189936    -0.00100
C3838       C  0.88175751  0.52128361  0.89240512    -0.02700
C3839       C  0.97115184  0.56179197  0.90188962     0.36600
C3840       C  0.84212032  0.47121233  0.87895443     0.40200
C3841       C  0.96320758  0.50946961  0.88251261     0.39300
C3842       C  0.85416176  0.52485874  0.89729904     0.36200
C3843       C  0.91310352  0.59937419  0.88536705     0.36900
C3844       C  0.93833599  0.59654352  0.95476450     0.40200
N3845       N  0.98769614  0.50978042  0.88156435    -0.37900
N3846       N  0.99680492  0.58030042  0.90720054    -0.39500
N3847       N  0.81417643  0.45327742  0.87743451    -0.37200
N3848       N  0.83188603  0.52718760  0.90106213    -0.39600
N3849       N  0.92251651  0.52051682  0.94019351    -0.39400
N3850       N  0.94808815  0.59389698  0.96760872    -0.37000
N3851       N  0.90056005  0.65940421  0.89768180    -0.38100
N3852       N  0.91112250  0.60061058  0.87095192    -0.39700
C3853       C  0.01363383  0.72048526  0.92372291    -0.04700
C3854       C  0.00989459  0.74748504  0.92035059     0.09500
C3855       C  0.97806205  0.74256153  0.92043738    -0.02100
C3856       C  0.95068343  0.71226305  0.92577262    -0.00300
C3857       C  0.95474588  0.68602855  0.93194010    -0.03900
C3858       C  0.98634157  0.68969542  0.92835380     0.03100
C3859       C  0.03940482  0.78018586  0.91550424     0.09900
C3860       C  0.97318307  0.76860494  0.91446905     0.35800
C3861       C  0.99302698  0.66352131  0.93124624     0.39200
C3862       C  0.05753739  0.78225580  0.90115580    -0.04300
C3863       C  0.08782199  0.81071355  0.89805453     0.02900
C3864       C  0.09491492  0.84156575  0.90492681    -0.03900
C3865       C  0.07978338  0.83859448  0.92088462    -0.00100
C3866       C  0.05189957  0.80817980  0.92596355    -0.02700
C3867       C  0.04545658  0.75502655  0.88950054     0.36600
C3868       C  0.09166646  0.86634970  0.93214512     0.40200
C3869       C  0.11296778  0.80575426  0.89076594     0.39300
C3870       C  0.03472890  0.80689066  0.94126337     0.36200
C3871       C  0.04644420  0.72518494  0.92397043     0.36900
C3872       C  0.91880661  0.70835878  0.92283155     0.40200
N3873       N  0.13277241  0.80108315  0.88525933    -0.37900
N3874       N  0.03568421  0.73344191  0.88013511    -0.39500
N3875       N  0.10059277  0.88781010  0.94153948    -0.37200
N3876       N  0.02118427  0.80703969  0.95332304    -0.39600
N3877       N  0.96853036  0.78881917  0.90966266    -0.39400
N3878       N  0.89383240  0.70586973  0.91971635    -0.37000
N3879       N  0.00003456  0.64377750  0.93329233    -0.38100
N3880       N  0.07255775  0.72898605  0.92421917    -0.39700
C3881       C  0.69302891  0.67928074  0.99298237    -0.04700
C3882       C  0.66268732  0.67740418  0.99175931     0.09500
C3883       C  0.64628975  0.66882356  0.97638681    -0.02100
C3884       C  0.66098435  0.66408433  0.96204732    -0.00300
C3885       C  0.69086510  0.66266954  0.96308665    -0.03900
C3886       C  0.70541180  0.66883972  0.97962079     0.03100
C3887       C  0.64757971  0.68376460  0.00686132     0.09900
C3888       C  0.61431205  0.66589854  0.97522946     0.35800
C3889       C  0.73459557  0.66780634  0.98364768     0.39200
C3890       C  0.64650350  0.71271173  0.00828554    -0.04300
C3891       C  0.63158117  0.71771926  0.02247270     0.02900
C3892       C  0.62406406  0.69741559  0.03697529    -0.03900
C3893       C  0.61594562  0.66475661  0.03291842    -0.00100
C3894       C  0.62975700  0.65868974  0.01860738    -0.02700
C3895       C  0.65987564  0.73691224  0.99497553     0.36600
C3896       C  0.58883935  0.63652898  0.04101703     0.40200
C3897       C  0.61782694  0.73853998  0.02034421     0.39300
C3898       C  0.62413034  0.62613182  0.01550174     0.36200
C3899       C  0.71352391  0.69594996  0.00739669     0.36900
C3900       C  0.64369697  0.65971377  0.94633892     0.40200
N3901       N  0.60665393  0.75492659  0.01829723    -0.37900
N3902       N  0.67060264  0.75615683  0.98432034    -0.39500
N3903       N  0.56697345  0.61323266  0.04687574    -0.37200
N3904       N  0.61944881  0.60011883  0.01296552    -0.39600
N3905       N  0.58888002  0.66360576  0.97434499    -0.39400
N3906       N  0.62849424  0.65586755  0.93431949    -0.37000
N3907       N  0.75795328  0.66797206  0.98799347    -0.38100
N3908       N  0.73070423  0.71078093  0.01835127    -0.39700
C3909       C  0.67811657  0.58975633  0.91176018    -0.04700
C3910       C  0.64394948  0.57039462  0.91453365     0.09500
C3911       C  0.63138413  0.57918504  0.92829056    -0.02100
C3912       C  0.65277487  0.60323953  0.93993848    -0.00300
C3913       C  0.68556423  0.62871163  0.93512132    -0.03900
C3914       C  0.69771178  0.61999484  0.92049167     0.03100
C3915       C  0.62150863  0.54162284  0.90293030     0.09900
C3916       C  0.59618316  0.56382182  0.93063516     0.35800
C3917       C  0.72984814  0.64154951  0.91332492     0.39200
C3918       C  0.59869971  0.51024575  0.90921963    -0.04300
C3919       C  0.57357347  0.48662169  0.89877599     0.02900
C3920       C  0.57773215  0.48655550  0.88092449    -0.03900
C3921       C  0.60091171  0.51919881  0.87449218    -0.00100
C3922       C  0.62066272  0.54615072  0.88547633    -0.02700
C3923       C  0.59918017  0.50234233  0.92673233     0.36600
C3924       C  0.60322118  0.52845189  0.85702802     0.40200
C3925       C  0.54108340  0.47356692  0.90580308     0.39300
C3926       C  0.63958388  0.57916954  0.87867864     0.36200
C3927       C  0.69331446  0.57875038  0.89964149     0.36900
C3928       C  0.64090242  0.59707378  0.95710900     0.40200
N3929       N  0.51538256  0.46433513  0.91155133    -0.37900
N3930       N  0.59949460  0.49594284  0.94070905    -0.39500
N3931       N  0.60608793  0.53834300  0.84347001    -0.37200
N3932       N  0.65449277  0.60515700  0.87294728    -0.39600
N3933       N  0.56812923  0.55180425  0.93247703    -0.39400
N3934       N  0.63069411  0.59101847  0.97067242    -0.37000
N3935       N  0.75477124  0.65687102  0.90649249    -0.38100
N3936       N  0.70551247  0.57004617  0.89001343    -0.39700
C3937       C  0.77361833  0.63519562  0.95634054    -0.04700
C3938       C  0.80326415  0.66026645  0.94940413     0.09500
C3939       C  0.80338946  0.68723627  0.94212553    -0.02100
C3940       C  0.77408831  0.68829814  0.94061976    -0.00300
C3941       C  0.74314367  0.66321843  0.94790131    -0.03900
C3942       C  0.74398992  0.63586547  0.95513707     0.03100
C3943       C  0.83384071  0.65732107  0.94870086     0.09900
C3944       C  0.83398996  0.71415940  0.93549776     0.35800
C3945       C  0.71470975  0.60791079  0.96202555     0.39200
C3946       C  0.83422716  0.63269063  0.93907816    -0.04300
C3947       C  0.86220001  0.62910089  0.93879821     0.02900
C3948       C  0.89365161  0.65440453  0.94514031    -0.03900
C3949       C  0.89218529  0.67889969  0.95523713    -0.00100
C3950       C  0.86246570  0.67903830  0.95757095    -0.02700
C3951       C  0.80514040  0.61019123  0.92958103     0.36600
C3952       C  0.92113466  0.70598645  0.96271895     0.40200
C3953       C  0.85554556  0.59677055  0.93427245     0.39300
C3954       C  0.86140995  0.70221688  0.96905780     0.36200
C3955       C  0.77395022  0.60885371  0.96538103     0.36900
C3956       C  0.77673196  0.71314538  0.92906428     0.40200
N3957       N  0.84891036  0.57032283  0.93110561    -0.37900
N3958       N  0.78192243  0.59229125  0.92205417    -0.39500
N3959       N  0.94252847  0.72903263  0.96891209    -0.37200
N3960       N  0.86053185  0.72067420  0.97818828    -0.39600
N3961       N  0.85790216  0.73637110  0.93037572    -0.39400
N3962       N  0.78001167  0.73282366  0.91944203    -0.37000
N3963       N  0.69269339  0.58490020  0.96796147    -0.38100
N3964       N  0.77439647  0.58803854  0.97265964    -0.39700
C3965       C  0.70312095  0.72941598  0.91800056    -0.04700
C3966       C  0.71567310  0.75597491  0.92924868     0.09500
C3967       C  0.72858480  0.75334951  0.94449745    -0.02100
C3968       C  0.73075877  0.72545953  0.94813646    -0.00300
C3969       C  0.71427223  0.69589324  0.93803878    -0.03900
C3970       C  0.70110649  0.69934407  0.92243506     0.03100
C3971       C  0.72076087  0.78879895  0.92396307     0.09900
C3972       C  0.74100379  0.78039448  0.95633319     0.35800
C3973       C  0.68491900  0.67300159  0.91048986     0.39200
C3974       C  0.69753056  0.79826643  0.92731046    -0.04300
C3975       C  0.70157894  0.82775012  0.92019745     0.02900
C3976       C  0.72877439  0.84743911  0.90935398    -0.03900
C3977       C  0.75626824  0.84293553  0.91198449    -0.00100
C3978       C  0.75114457  0.81241624  0.91722032    -0.02700
C3979       C  0.66873807  0.77683276  0.93724453     0.36600
C3980       C  0.79019122  0.86984279  0.91167868     0.40200
C3981       C  0.67653735  0.83600381  0.92321995     0.39300
C3982       C  0.77791233  0.80604738  0.91617096     0.36200
C3983       C  0.69226942  0.73316661  0.90158485     0.36900
C3984       C  0.75318327  0.72959454  0.96154734     0.40200
N3985       N  0.65619003  0.84204155  0.92575451    -0.37900
N3986       N  0.64573251  0.75959306  0.94513923    -0.39500
N3987       N  0.81741109  0.89076491  0.91181067    -0.37200
N3988       N  0.79977835  0.80180599  0.91522368    -0.39600
N3989       N  0.75062249  0.80183471  0.96578162    -0.39400
N3990       N  0.77250641  0.73539931  0.97188413    -0.37000
N3991       N  0.67116957  0.65318051  0.90035899    -0.38100
N3992       N  0.68373147  0.73578985  0.88840054    -0.39700
loop_ 
_geom_bond_atom_site_label_1 
_geom_bond_atom_site_label_2 
_geom_bond_distance 
_geom_bond_site_symmetry_2 
_ccdc_geom_bond_type 
C1         C3885   1.615       .  S
C1         C3913   1.636       .  S
C1         C3941   1.621       .  S
C1         C3969   1.614       .  S
C2         C3801   1.617       .  S
C2         C3829   1.622       .  S
C2         C3857   1.613       .  S
C2         C3948   1.620       .  S
C3         C3696   1.619       .  S
C3         C3724   1.627       .  S
C3         C3752   1.637       .  S
C3         C3773   1.616       .  S
C4         C3612   1.630       .  S
C4         C3633   1.637       .  S
C4         C3661   1.623       .  S
C4         C3745   1.642       .  S
C5         C3493   1.603       .  S
C5         C3521   1.638       .  S
C5         C3556   1.611       .  S
C5         C3577   1.630       .  S
C6         C3409   1.617       .  S
C6         C3444   1.604       .  S
C6         C3472   1.628       .  S
C6         C3549   1.629       .  S
C7         C3353   1.618       .  S
C7         C3381   1.611       .  S
C7         C3528   1.635       .  S
C7         C3717   1.637       .  S
C8         C3304   1.613       .  S
C8         C3325   1.607       .  S
C8         C3640   1.640       .  S
C8         C3920   1.644       .  S
C9         C3248   1.613       .  S
C9         C3269   1.618       .  S
C9         C3332   1.613       .  S
C9         C3388   1.611       .  S
C10        C3213   1.625       .  S
C10        C3241   1.613       .  S
C10        C3437   1.624       .  S
C10        C3836   1.629       .  S
C11        C3101   1.620       .  S
C11        C3129   1.623       .  S
C11        C3157   1.639       .  S
C11        C3185   1.614       .  S
C12        C3017   1.620       .  S
C12        C3045   1.630       .  S
C12        C3073   1.618       .  S
C12        C3164   1.628       .  S
C13        C2912   1.599       .  S
C13        C2940   1.626       .  S
C13        C2961   1.644       .  S
C13        C2996   1.614       .  S
C14        C2828   1.621       .  S
C14        C2849   1.617       .  S
C14        C2877   1.613       .  S
C14        C2968   1.642       .  S
C15        C2709   1.636       .  S
C15        C2744   1.636       .  S
C15        C2765   1.640       .  S
C15        C2800   1.617       .  S
C16        C2632   1.620       .  S
C16        C2653   1.640       .  S
C16        C2681   1.615       .  S
C16        C2772   1.640       .  S
C17        C2569   1.616       .  S
C17        C2597   1.610       .  S
C17        C2660   1.636       .  S
C17        C3052   1.628       .  S
C18        C2520   1.618       .  S
C18        C2541   1.605       .  S
C18        C2856   1.626       .  S
C18        C3136   1.622       .  S
C19        C2485   1.620       .  S
C19        C2548   1.609       .  S
C19        C2604   1.622       .  S
C19        C3276   1.624       .  S
C20        C2464   1.618       .  S
C20        C2492   1.619       .  S
C20        C2737   1.631       .  S
C20        C2933   1.602       .  S
C21        C2345   1.550       .  S
C21          C22   1.538       .  S
C21          C27   1.548       .  S
C21          C25   1.531       .  S
C22          H29   1.088       .  S
C22          C23   1.358       .  D
C23          C24   1.534       .  S
C23        C2429   1.471       .  S
C24          C28   1.531       .  S
C24          C26   1.539       .  S
C24          H30   1.102       .  S
C25          H31   1.088   1_455  S
C25          C26   1.369       .  D
C26        C2408   1.509   1_445  S
C27          H32   1.081       .  S
C27          C28   1.368       .  D
C28        C2380   1.495   1_545  S
C33        C2352   1.556   1_655  S
C33          C34   1.550   1_545  S
C33          C39   1.533   1_645  S
C33          C37   1.543   1_655  S
C34          H41   1.086       .  S
C34          C35   1.369       .  D
C35          C36   1.539       .  S
C35        C2296   1.503       .  S
C36          C40   1.548   1_655  S
C36          C38   1.538   1_565  S
C36          H42   1.101       .  S
C37          H43   1.082       .  S
C37          C38   1.375   1_455  D
C38        C2268   1.516   1_655  S
C39          H44   1.084       .  S
C39          C40   1.355       .  D
C40        C2324   1.485       .  S
C45        C2240   1.609       .  S
C45        C2373   1.607       .  S
C45        C2989   1.612       .  S
C45        C3080   1.622       .  S
C46        C2205   1.605       .  S
C46        C2401   1.603       .  S
C46        C2793   1.619       .  S
C46        C3192   1.610       .  S
C47        C2177   1.614       .  S
C47        C2436   1.603       .  S
C47        C2688   1.610       .  S
C47        C2884   1.594       .  S
C48        C2149   1.609       .  S
C48        C2317   1.609       .  S
C48        C3780   1.607       .  S
C48        C3864   1.608       .  S
C49        C2128   1.615       .  S
C49        C2289   1.602       .  S
C49        C3584   1.621       .  S
C49        C3976   1.609       .  S
C50        C2100   1.613       .  S
C50        C2261   1.614       .  S
C50        C3465   1.607       .  S
C50        C3668   1.617       .  S
C51        C2037   1.604       .  S
C51        C2072   1.593       .  S
C51        C2513   1.603       .  S
C51        C3297   1.620       .  S
C52        C1988   1.614       .  S
C52        C2016   1.609       .  S
C52        C2457   1.603   1_565  S
C52        C3360   1.621   1_565  S
In53         O55   2.220       .  S
In53         O56   2.242       .  S
In53         O64   2.207       .  S
In53         O58   2.228       .  S
In53         O60   2.235       .  S
In53         O61   2.229       .  S
In53         O62   2.198       .  S
In53         O65   2.219       .  S
C54          O60   1.264       .  A
C54          O62   1.260       .  A
C54        C2044   1.490       .  S
O55          C63   1.259       .  A
O56          C63   1.265       .  A
C57          O64   1.260       .  A
C57          O58   1.265       .  A
C57        C1981   1.470       .  S
C59          O61   1.266       .  A
C59          O65   1.262       .  A
C59        C2121   1.484       .  S
C63        C2212   1.478       .  S
C66        C1925   1.616       .  S
C66        C1960   1.583       .  S
C66        C2576   1.607   1_455  S
C66        C3220   1.632   1_455  S
In67         O69   2.226       .  S
In67         O70   2.221       .  S
In67         O78   2.212       .  S
In67         O72   2.230       .  S
In67         O74   2.229       .  S
In67         O75   2.222       .  S
In67         O76   2.217       .  S
In67         O79   2.211       .  S
C68          O74   1.264       .  A
C68          O76   1.260       .  A
C68        C2009   1.473       .  S
O69          C77   1.260       .  A
O70          C77   1.262       .  A
C71          O78   1.260       .  A
C71          O72   1.263       .  A
C71        C1932   1.476       .  S
C73          O75   1.263       .  A
C73          O79   1.261       .  A
C73        C2156   1.476       .  S
C77        C2233   1.474       .  S
In80         O82   2.191       .  S
In80         O83   2.247       .  S
In80         O91   2.208       .  S
In80         O85   2.217       .  S
In80         O87   2.241       .  S
In80         O88   2.222       .  S
In80         O89   2.184       .  S
In80         O92   2.225       .  S
C81          O87   1.268       .  A
C81          O89   1.261       .  A
C81        C2065   1.487       .  S
O82          C90   1.261       .  A
O83          C90   1.269       .  A
C84          O91   1.263       .  A
C84          O85   1.267       .  A
C84        C1953   1.478       .  S
C86          O88   1.267       .  A
C86          O92   1.263       .  A
C86        C2184   1.477       .  S
C90        C2093   1.475       .  S
C93        C1841   1.649       .  S
C93        C1869   1.639       .  S
C93        C1897   1.598       .  S
C93        C3500   1.620       .  S
C94        C1792   1.600       .  S
C94        C1820   1.607       .  S
C94        C1876   1.624       .  S
C94        C3892   1.619       .  S
C95        C1701   1.642       .  S
C95        C1736   1.628       .  S
C95        C1757   1.614       .  S
C95        C3605   1.621       .  S
C96        C1652   1.628       .  S
C96        C1673   1.609       .  S
C96        C1729   1.640       .  S
C96        C3416   1.625       .  S
C97        C1561   1.620       .  S
C97        C1589   1.620       .  S
C97        C1617   1.621       .  S
C97        C3808   1.611       .  S
C98        C1505   1.620       .  S
C98        C1533   1.612       .  S
C98        C1596   1.605       .  S
C98        C3689   1.626       .  S
C99        C1449   1.626       .  S
C99        C1484   1.607       .  S
C99        C1512   1.631       .  S
C99        C1848   1.620       .  S
C100       C1393   1.624       .  S
C100       C1421   1.601       .  S
C100       C1568   1.618       .  S
C100       C1645   1.632       .  S
C101       C1337   1.624       .  S
C101       C1365   1.600       .  S
C101       C1708   1.630       .  S
C101       C1785   1.603       .  S
C102       C1316   1.620       .  S
C102       C1372   1.595       .  S
C102       C1428   1.614       .  S
C102       C1477   1.604       .  S
C103       C1225   1.622       .  S
C103       C1253   1.630       .  S
C103       C1288   1.605       .  S
C103       C2716   1.627       .  S
C104       C1169   1.638       .  S
C104       C1197   1.619       .  S
C104       C1260   1.636       .  S
C104       C3108   1.622       .  S
C105       C1092   1.644       .  S
C105       C1113   1.636       .  S
C105       C1148   1.606       .  S
C105       C2625   1.631       .  S
C106       C1029   1.633       .  S
C106       C1057   1.619       .  S
C106       C1120   1.630       .  S
C106       C2821   1.620       .  S
C107        C952   1.621       .  S
C107        C980   1.624       .  S
C107       C1001   1.616       .  S
C107       C3024   1.623       .  S
C108        C889   1.632       .  S
C108        C924   1.615       .  S
C108        C973   1.618       .  S
C108       C2905   1.602       .  S
C109        C833   1.627       .  S
C109        C861   1.591       .  S
C109        C945   1.607       .  S
C109       C1085   1.640       .  S
C110        C777   1.636       .  S
C110        C812   1.609       .  S
C110        C896   1.635       .  S
C110       C1232   1.629       .  S
C111        C728   1.632       .  S
C111        C749   1.608       .  S
C111       C1036   1.636       .  S
C111       C1176   1.631       .  S
C112        C756   1.627       .  S
C112        C805   1.621       .  S
C112        C868   1.608       .  S
C112       C1309   1.614       .  S
C113        C609   1.547       .  S
C113        C114   1.517       .  S
C113        C119   1.544       .  S
C113        C117   1.561   1_545  S
C114        H121   1.091       .  S
C114        C115   1.350       .  D
C115        C116   1.543       .  S
C115        C700   1.475       .  S
C116        C120   1.530       .  S
C116        C118   1.535   1_545  S
C116        H122   1.100       .  S
C117        H123   1.047   1_455  S
C117        C118   1.384       .  D
C118        C637   1.519   1_455  S
C119        H124   1.083       .  S
C119        C120   1.365       .  D
C120        C672   1.496       .  S
C125        C616   1.550   1_545  S
C125        C126   1.536   1_445  S
C125        C131   1.532   1_455  S
C125        C129   1.543       .  S
C126        H133   1.086       .  S
C126        C127   1.376       .  D
C127        C128   1.546   1_565  S
C127        C581   1.522       .  S
C128        C132   1.537       .  S
C128        C130   1.534   1_655  S
C128        H134   1.101       .  S
C129        H135   1.089       .  S
C129        C130   1.372       .  D
C130        C532   1.489       .  S
C131        H136   1.086       .  S
C131        C132   1.351       .  D
C132        C553   1.475       .  S
C137        C504   1.598       .  S
C137        C560   1.605       .  S
C137       C1680   1.616       .  S
C137       C1904   1.602       .  S
C138        C469   1.611       .  S
C138        C665   1.593       .  S
C138       C1141   1.611       .  S
C138       C1281   1.613       .  S
C139        C441   1.602       .  S
C139        C693   1.605       .  S
C139        C917   1.604       .  S
C139       C1064   1.614       .  S
C140        C413   1.613       .  S
C140        C525   1.605       .  S
C140       C1540   1.589       .  S
C140       C1764   1.604       .  S
C141        C385   1.613       .  S
C141        C588   1.597       .  S
C141       C1624   1.623       .  S
C141       C1813   1.605       .  S
C142        C357   1.602       .  S
C142        C644   1.599       .  S
C142       C1008   1.617       .  S
C142       C1204   1.619       .  S
C143        C308   1.610       .  S
C143        C336   1.606       .  S
C143        C721   1.633       .  S
C143       C1344   1.620       .  S
C144        C245   1.616   1_455  S
C144        C273   1.587   1_455  S
C144        C840   1.611       .  S
C144       C1400   1.623       .  S
C145        C196   1.613       .  S
C145        C224   1.609       .  S
C145        C784   1.614   1_545  S
C145       C1456   1.629   1_545  S
In146       O148   2.221       .  S
In146       O149   2.216       .  S
In146       O157   2.226       .  S
In146       O151   2.205       .  S
In146       O153   2.241       .  S
In146       O154   2.226       .  S
In146       O155   2.201       .  S
In146       O158   2.200       .  S
C147        O153   1.262       .  A
C147        O155   1.259       .  A
C147        C476   1.473       .  S
O148        C156   1.260       .  A
O149        C156   1.261       .  A
C150        O157   1.260       .  A
C150        O151   1.262       .  A
C150        C497   1.469       .  S
C152        O154   1.263       .  A
C152        O158   1.260       .  A
C152        C189   1.462       .  S
C156        C280   1.468       .  S
In159       O161   2.234       .  S
In159       O162   2.232       .  S
In159       O170   2.241       .  S
In159       O164   2.237       .  S
In159       O166   2.248       .  S
In159       O167   2.241       .  S
In159       O168   2.211       .  S
In159       O171   2.223       .  S
C160        O166   1.262       .  A
C160        O168   1.259       .  A
C160        C301   1.469       .  S
O161        C169   1.260       .  A
O162        C169   1.261       .  A
C163        O170   1.258       .  A
C163        O164   1.261       .  A
C163        C217   1.479       .  S
C165        O167   1.262       .  A
C165        O171   1.259       .  A
C165        C448   1.467       .  S
C169        C420   1.475       .  S
In172       O174   2.200       .  S
In172       O175   2.235       .  S
In172       O183   2.239       .  S
In172       O177   2.241       .  S
In172       O179   2.253       .  S
In172       O180   2.226       .  S
In172       O181   2.227       .  S
In172       O184   2.233       .  S
C173        O179   1.262       .  A
C173        O181   1.258       .  A
C173        C329   1.479       .  S
O174        C182   1.262       .  A
O175        C182   1.260       .  A
C176        O183   1.258       .  A
C176        O177   1.261       .  A
C176        C252   1.493       .  S
C178        O180   1.257       .  A
C178        O184   1.259       .  A
C178        C392   1.478       .  S
C182        C364   1.463       .  S
C185        C186   1.410       .  A
C185        C190   1.405       .  A
C185        C203   1.450       .  S
C186        C191   1.482       .  S
C186        C187   1.409       .  A
C187        C188   1.402       .  A
C187        C192   1.452       .  S
C188        C189   1.410       .  A
C188        C204   1.452       .  S
C189        C190   1.409       .  A
C190        C193   1.451       .  S
C191        C194   1.390       .  A
C191        C198   1.395       .  A
C192        N209   1.157       .  T
C193        N211   1.157       .  T
C194        C195   1.409       .  A
C194        C199   1.458       .  S
C195        C196   1.454       .  A
C195        C201   1.447       .  S
C196        C197   1.453       .  A
C197        C198   1.413       .  A
C197        C200   1.454   1_545  S
C198        C202   1.457       .  S
C199        N206   1.157       .  T
C200        N207   1.158       .  T
C201        N205   1.157       .  T
C202        N208   1.157       .  T
C203        N212   1.157       .  T
C204        N210   1.157       .  T
C213        C214   1.414       .  A
C213        C218   1.412       .  A
C213        C231   1.450       .  S
C214        C219   1.503       .  S
C214        C215   1.416       .  A
C215        C216   1.406       .  A
C215        C220   1.450       .  S
C216        C217   1.410       .  A
C216        C232   1.453       .  S
C217        C218   1.413       .  A
C218        C221   1.451       .  S
C219        C222   1.404       .  A
C219        C226   1.399       .  A
C220        N237   1.157       .  T
C221        N239   1.157       .  T
C222        C223   1.416       .  A
C222        C227   1.455       .  S
C223        C224   1.448       .  A
C223        C229   1.454       .  S
C224        C225   1.451       .  A
C225        C226   1.416       .  A
C225        C228   1.451   1_545  S
C226        C230   1.455       .  S
C227        N234   1.157       .  T
C228        N235   1.158       .  T
C229        N233   1.158       .  T
C230        N236   1.157       .  T
C231        N240   1.157       .  T
C232        N238   1.157       .  T
C241        C242   1.402       .  A
C241        C246   1.412       .  A
C241        C259   1.453       .  S
C242        C247   1.493       .  S
C242        C243   1.401       .  A
C243        C244   1.406       .  A
C243        C248   1.453       .  S
C244        C245   1.429       .  A
C244        C260   1.447       .  S
C245        C246   1.435       .  A
C246        C249   1.445       .  S
C247        C250   1.405       .  A
C247        C254   1.412       .  A
C248        N265   1.157       .  T
C249        N267   1.156       .  T
C250        C251   1.412       .  A
C250        C255   1.450       .  S
C251        C252   1.422       .  A
C251        C257   1.451       .  S
C252        C253   1.418       .  A
C253        C254   1.407       .  A
C253        C256   1.452       .  S
C254        C258   1.453       .  S
C255        N262   1.157       .  T
C256        N263   1.158       .  T
C257        N261   1.157       .  T
C258        N264   1.157       .  T
C259        N268   1.157       .  T
C260        N266   1.157       .  T
C269        C270   1.395       .  A
C269        C274   1.407       .  A
C269        C287   1.455       .  S
C270        C275   1.482       .  S
C270        C271   1.397       .  A
C271        C272   1.410       .  A
C271        C276   1.455       .  S
C272        C273   1.441       .  A
C272        C288   1.447       .  S
C273        C274   1.446       .  A
C274        C277   1.451   1_655  S
C275        C278   1.408       .  A
C275        C282   1.409       .  A
C276        N293   1.157       .  T
C277        N295   1.158       .  T
C278        C279   1.405       .  A
C278        C283   1.452       .  S
C279        C280   1.412       .  A
C279        C285   1.451       .  S
C280        C281   1.410       .  A
C281        C282   1.403       .  A
C281        C284   1.452       .  S
C282        C286   1.450       .  S
C283        N290   1.157       .  T
C284        N291   1.157       .  T
C285        N289   1.157       .  T
C286        N292   1.157       .  T
C287        N296   1.157       .  T
C288        N294   1.157       .  T
C297        C298   1.411       .  A
C297        C302   1.407       .  A
C297        C315   1.450       .  S
C298        C303   1.488       .  S
C298        C299   1.411       .  A
C299        C300   1.404       .  A
C299        C304   1.451       .  S
C300        C301   1.408       .  A
C300        C316   1.451       .  S
C301        C302   1.409       .  A
C302        C305   1.449       .  S
C303        C306   1.396       .  A
C303        C310   1.391       .  A
C304        N321   1.157       .  T
C305        N323   1.157       .  T
C306        C307   1.415       .  A
C306        C311   1.455       .  S
C307        C308   1.451       .  A
C307        C313   1.452       .  S
C308        C309   1.456       .  A
C309        C310   1.413       .  A
C309        C312   1.445       .  S
C310        C314   1.460       .  S
C311        N318   1.157       .  T
C312        N319   1.157       .  T
C313        N317   1.157       .  T
C314        N320   1.157       .  T
C315        N324   1.157       .  T
C316        N322   1.157       .  T
C325        C326   1.413       .  A
C325        C330   1.407       .  A
C325        C343   1.451       .  S
C326        C331   1.502       .  S
C326        C327   1.419       .  A
C327        C328   1.409       .  A
C327        C332   1.451       .  S
C328        C329   1.410       .  A
C328        C344   1.452       .  S
C329        C330   1.410       .  A
C330        C333   1.449       .  S
C331        C334   1.401       .  A
C331        C338   1.404       .  A
C332        N349   1.157       .  T
C333        N351   1.157       .  T
C334        C335   1.415       .  A
C334        C339   1.456       .  S
C335        C336   1.449       .  A
C335        C341   1.450       .  S
C336        C337   1.448       .  A
C337        C338   1.416       .  A
C337        C340   1.452       .  S
C338        C342   1.456       .  S
C339        N346   1.157       .  T
C340        N347   1.158       .  T
C341        N345   1.158       .  T
C342        N348   1.157       .  T
C343        N352   1.157       .  T
C344        N350   1.157       .  T
C353        C354   1.402       .  A
C353        C358   1.415       .  A
C353        C371   1.459       .  S
C354        C359   1.489       .  S
C354        C355   1.394       .  A
C355        C356   1.403       .  A
C355        C360   1.456       .  S
C356        C357   1.456       .  A
C356        C372   1.456       .  S
C357        C358   1.441       .  A
C358        C361   1.438       .  S
C359        C362   1.413       .  A
C359        C366   1.414       .  A
C360        N377   1.157       .  T
C361        N379   1.156       .  T
C362        C363   1.397       .  A
C362        C367   1.452       .  S
C363        C364   1.404       .  A
C363        C369   1.450       .  S
C364        C365   1.408       .  A
C365        C366   1.407       .  A
C365        C368   1.449       .  S
C366        C370   1.450       .  S
C367        N374   1.157       .  T
C368        N375   1.157       .  T
C369        N373   1.157       .  T
C370        N376   1.157       .  T
C371        N380   1.157       .  T
C372        N378   1.158       .  T
C381        C382   1.398       .  A
C381        C386   1.419       .  A
C381        C399   1.456       .  S
C382        C387   1.493       .  S
C382        C383   1.392       .  A
C383        C384   1.407       .  A
C383        C388   1.457       .  S
C384        C385   1.458       .  A
C384        C400   1.453       .  S
C385        C386   1.448       .  A
C386        C389   1.441       .  S
C387        C390   1.413       .  A
C387        C394   1.410       .  A
C388        N405   1.157       .  T
C389        N407   1.158       .  T
C390        C391   1.406       .  A
C390        C395   1.451       .  S
C391        C392   1.413       .  A
C391        C397   1.453       .  S
C392        C393   1.415       .  A
C393        C394   1.407       .  A
C393        C396   1.452       .  S
C394        C398   1.451       .  S
C395        N402   1.157       .  T
C396        N403   1.157       .  T
C397        N401   1.157       .  T
C398        N404   1.157       .  T
C399        N408   1.157       .  T
C400        N406   1.158       .  T
C409        C410   1.394       .  A
C409        C414   1.404       .  A
C409        C427   1.454       .  S
C410        C415   1.488       .  S
C410        C411   1.401       .  A
C411        C412   1.416       .  A
C411        C416   1.455       .  S
C412        C413   1.448       .  A
C412        C428   1.452       .  S
C413        C414   1.442       .  A
C414        C417   1.448       .  S
C415        C418   1.409       .  A
C415        C422   1.409       .  A
C416        N433   1.157       .  T
C417        N435   1.158       .  T
C418        C419   1.404       .  A
C418        C423   1.452       .  S
C419        C420   1.413       .  A
C419        C425   1.452       .  S
C420        C421   1.413       .  A
C421        C422   1.410       .  A
C421        C424   1.450       .  S
C422        C426   1.451       .  S
C423        N430   1.157       .  T
C424        N431   1.157       .  T
C425        N429   1.157       .  T
C426        N432   1.157       .  T
C427        N436   1.157       .  T
C428        N434   1.158       .  T
C437        C438   1.395       .  A
C437        C442   1.401       .  A
C437        C455   1.455       .  S
C438        C443   1.490       .  S
C438        C439   1.400       .  A
C439        C440   1.417       .  A
C439        C444   1.457       .  S
C440        C441   1.444       .  A
C440        C456   1.440       .  S
C441        C442   1.453       .  A
C442        C445   1.457       .  S
C443        C446   1.412       .  A
C443        C450   1.412       .  A
C444        N461   1.157       .  T
C445        N463   1.158       .  T
C446        C447   1.405       .  A
C446        C451   1.452       .  S
C447        C448   1.409       .  A
C447        C453   1.450       .  S
C448        C449   1.409       .  A
C449        C450   1.406       .  A
C449        C452   1.451       .  S
C450        C454   1.451       .  S
C451        N458   1.157       .  T
C452        N459   1.157       .  T
C453        N457   1.157       .  T
C454        N460   1.157       .  T
C455        N464   1.157       .  T
C456        N462   1.157       .  T
C465        C466   1.397       .  A
C465        C470   1.418       .  A
C465        C483   1.458       .  S
C466        C471   1.487       .  S
C466        C467   1.390       .  A
C467        C468   1.406       .  A
C467        C472   1.457       .  S
C468        C469   1.459       .  A
C468        C484   1.455       .  S
C469        C470   1.447       .  A
C470        C473   1.441       .  S
C471        C474   1.410       .  A
C471        C478   1.408       .  A
C472        N489   1.157       .  T
C473        N491   1.157       .  T
C474        C475   1.408       .  A
C474        C479   1.451       .  S
C475        C476   1.413       .  A
C475        C481   1.451       .  S
C476        C477   1.411       .  A
C477        C478   1.401       .  A
C477        C480   1.452       .  S
C478        C482   1.450       .  S
C479        N486   1.157       .  T
C480        N487   1.157       .  T
C481        N485   1.158       .  T
C482        N488   1.157       .  T
C483        N492   1.157       .  T
C484        N490   1.158       .  T
C493        C494   1.408       .  A
C493        C498   1.401       .  A
C493        C511   1.452       .  S
C494        C499   1.481       .  S
C494        C495   1.408       .  A
C495        C496   1.406       .  A
C495        C500   1.449       .  S
C496        C497   1.412       .  A
C496        C512   1.451       .  S
C497        C498   1.412       .  A
C498        C501   1.452       .  S
C499        C502   1.392       .  A
C499        C506   1.399       .  A
C500        N517   1.157       .  T
C501        N519   1.157       .  T
C502        C503   1.410       .  A
C502        C507   1.453       .  S
C503        C504   1.454       .  A
C503        C509   1.451       .  S
C504        C505   1.447       .  A
C505        C506   1.406       .  A
C505        C508   1.446       .  S
C506        C510   1.459       .  S
C507        N514   1.157       .  T
C508        N515   1.158       .  T
C509        N513   1.157       .  T
C510        N516   1.157       .  T
C511        N520   1.157       .  T
C512        N518   1.157       .  T
C521        C522   1.406       .  A
C521        C526   1.410       .  A
C521        C539   1.456       .  S
C522        C527   1.494       .  S
C522        C523   1.398       .  A
C523        C524   1.411       .  A
C523        C528   1.455       .  S
C524        C525   1.449       .  A
C524        C540   1.451       .  S
C525        C526   1.443       .  A
C526        C529   1.454       .  S
C527        C530   1.410       .  A
C527        C534   1.414       .  A
C528        N545   1.157       .  T
C529        N547   1.157       .  T
C530        C531   1.409       .  A
C530        C535   1.451       .  S
C531        C532   1.414       .  A
C531        C537   1.446       .  S
C532        C533   1.411       .  A
C533        C534   1.401       .  A
C533        C536   1.453   1_545  S
C534        C538   1.450       .  S
C535        N542   1.157       .  T
C536        N543   1.157       .  T
C537        N541   1.157       .  T
C538        N544   1.157   1_545  T
C539        N548   1.157       .  T
C540        N546   1.158       .  T
C549        C550   1.420       .  A
C549        C554   1.405       .  A
C549        C567   1.450       .  S
C550        C555   1.499       .  S
C550        C551   1.413       .  A
C551        C552   1.407       .  A
C551        C556   1.451   1_655  S
C552        C553   1.409       .  A
C552        C568   1.451   1_655  S
C553        C554   1.402       .  A
C554        C557   1.451       .  S
C555        C558   1.402       .  A
C555        C562   1.399       .  A
C556        N573   1.157       .  T
C557        N575   1.157   1_545  T
C558        C559   1.417       .  A
C558        C563   1.455       .  S
C559        C560   1.445       .  A
C559        C565   1.450       .  S
C560        C561   1.453       .  A
C561        C562   1.411       .  A
C561        C564   1.453       .  S
C562        C566   1.459       .  S
C563        N570   1.157       .  T
C564        N571   1.158       .  T
C565        N569   1.158       .  T
C566        N572   1.157       .  T
C567        N576   1.156       .  T
C568        N574   1.157       .  T
C577        C578   1.404       .  A
C577        C582   1.413       .  A
C577        C595   1.455       .  S
C578        C583   1.500       .  S
C578        C579   1.410       .  A
C579        C580   1.410       .  A
C579        C584   1.453       .  S
C580        C581   1.424       .  A
C580        C596   1.451       .  S
C581        C582   1.432       .  A
C582        C585   1.444       .  S
C583        C586   1.406       .  A
C583        C590   1.397       .  A
C584        N601   1.158       .  T
C585        N603   1.157       .  T
C586        C587   1.418       .  A
C586        C591   1.452       .  S
C587        C588   1.435       .  A
C587        C593   1.441       .  S
C588        C589   1.445       .  A
C589        C590   1.406       .  A
C589        C592   1.445       .  S
C590        C594   1.457       .  S
C591        N598   1.157       .  T
C592        N599   1.156       .  T
C593        N597   1.157       .  T
C594        N600   1.157       .  T
C595        N604   1.157       .  T
C596        N602   1.157       .  T
C605        C606   1.403       .  A
C605        C610   1.408       .  A
C605        C623   1.452       .  S
C606        C611   1.490       .  S
C606        C607   1.405   1_545  A
C607        C608   1.411       .  A
C607        C612   1.451       .  S
C608        C609   1.426   1_565  A
C608        C624   1.449       .  S
C609        C610   1.429       .  A
C610        C613   1.452       .  S
C611        C614   1.405       .  A
C611        C618   1.403   1_445  A
C612        N629   1.157       .  T
C613        N631   1.158       .  T
C614        C615   1.413       .  A
C614        C619   1.451       .  S
C615        C616   1.426   1_545  A
C615        C621   1.447   1_545  S
C616        C617   1.429   1_455  A
C617        C618   1.406       .  A
C617        C620   1.452       .  S
C618        C622   1.454       .  S
C619        N626   1.157       .  T
C620        N627   1.157       .  T
C621        N625   1.158       .  T
C622        N628   1.157       .  T
C623        N632   1.157       .  T
C624        N630   1.158       .  T
C633        C634   1.400       .  A
C633        C638   1.409   1_655  A
C633        C651   1.454   1_655  S
C634        C639   1.490       .  S
C634        C635   1.402       .  A
C635        C636   1.410       .  A
C635        C640   1.450       .  S
C636        C637   1.427       .  A
C636        C652   1.449       .  S
C637        C638   1.433   1_655  A
C638        C641   1.448       .  S
C639        C642   1.400       .  A
C639        C646   1.396       .  A
C640        N657   1.156       .  T
C641        N659   1.158   1_565  T
C642        C643   1.418       .  A
C642        C647   1.454       .  S
C643        C644   1.440       .  A
C643        C649   1.441       .  S
C644        C645   1.453       .  A
C645        C646   1.403       .  A
C645        C648   1.456       .  S
C646        C650   1.457       .  S
C647        N654   1.157       .  T
C648        N655   1.158       .  T
C649        N653   1.157       .  T
C650        N656   1.157   1_655  T
C651        N660   1.157       .  T
C652        N658   1.157       .  T
C661        C662   1.400       .  A
C661        C666   1.417       .  A
C661        C679   1.455       .  S
C662        C667   1.488       .  S
C662        C663   1.394       .  A
C663        C664   1.402       .  A
C663        C668   1.456       .  S
C664        C665   1.451       .  A
C664        C680   1.455       .  S
C665        C666   1.442       .  A
C666        C669   1.442       .  S
C667        C670   1.405       .  A
C667        C674   1.407       .  A
C668        N685   1.157       .  T
C669        N687   1.156       .  T
C670        C671   1.407       .  A
C670        C675   1.453       .  S
C671        C672   1.422   1_655  A
C671        C677   1.449       .  S
C672        C673   1.418       .  A
C673        C674   1.408   1_455  A
C673        C676   1.449       .  S
C674        C678   1.453   1_655  S
C675        N682   1.157       .  T
C676        N683   1.157       .  T
C677        N681   1.157       .  T
C678        N684   1.157       .  T
C679        N688   1.157       .  T
C680        N686   1.158       .  T
C689        C690   1.397       .  A
C689        C694   1.406       .  A
C689        C707   1.455       .  S
C690        C695   1.495       .  S
C690        C691   1.403       .  A
C691        C692   1.417       .  A
C691        C696   1.456       .  S
C692        C693   1.439       .  A
C692        C708   1.440       .  S
C693        C694   1.453       .  A
C694        C697   1.456       .  S
C695        C698   1.414       .  A
C695        C702   1.414       .  A
C696        N713   1.157       .  T
C697        N715   1.158       .  T
C698        C699   1.407       .  A
C698        C703   1.451       .  S
C699        C700   1.410       .  A
C699        C705   1.452   1_545  S
C700        C701   1.406       .  A
C701        C702   1.406       .  A
C701        C704   1.451       .  S
C702        C706   1.450       .  S
C703        N710   1.157   1_545  T
C704        N711   1.157       .  T
C705        N709   1.158       .  T
C706        N712   1.157       .  T
C707        N716   1.157       .  T
C708        N714   1.157       .  T
C717        C718   1.400       .  A
C717        C722   1.426       .  A
C717        C735   1.458       .  S
C718        C723   1.524       .  S
C718        C719   1.401       .  A
C719        C720   1.426       .  A
C719        C724   1.454       .  S
C720        C721   1.452       .  A
C720        C736   1.449       .  S
C721        C722   1.460       .  A
C722        C725   1.446       .  S
C723        C726   1.405       .  A
C723        C730   1.399       .  A
C724        N741   1.157       .  T
C725        N743   1.157       .  T
C726        C727   1.430       .  A
C726        C731   1.455       .  S
C727        C728   1.452       .  A
C727        C733   1.445       .  S
C728        C729   1.459       .  A
C729        C730   1.419       .  A
C729        C732   1.454       .  S
C730        C734   1.454       .  S
C731        N738   1.157       .  T
C732        N739   1.158       .  T
C733        N737   1.158       .  T
C734        N740   1.157       .  T
C735        N744   1.157       .  T
C736        N742   1.157       .  T
C745        C746   1.404       .  A
C745        C750   1.424       .  A
C745        C763   1.453       .  S
C746        C751   1.509       .  S
C746        C747   1.399       .  A
C747        C748   1.413       .  A
C747        C752   1.454       .  S
C748        C749   1.450       .  A
C748        C764   1.452       .  S
C749        C750   1.445       .  A
C750        C753   1.445       .  S
C751        C754   1.396       .  A
C751        C758   1.405       .  A
C752        N769   1.157       .  T
C753        N771   1.158       .  T
C754        C755   1.411       .  A
C754        C759   1.454       .  S
C755        C756   1.447       .  A
C755        C761   1.446       .  S
C756        C757   1.444       .  A
C757        C758   1.429       .  A
C757        C760   1.446       .  S
C758        C762   1.452       .  S
C759        N766   1.157       .  T
C760        N767   1.158       .  T
C761        N765   1.156       .  T
C762        N768   1.157       .  T
C763        N772   1.157       .  T
C764        N770   1.157       .  T
C773        C774   1.399       .  A
C773        C778   1.423       .  A
C773        C791   1.454       .  S
C774        C779   1.527       .  S
C774        C775   1.406       .  A
C775        C776   1.432       .  A
C775        C780   1.455       .  S
C776        C777   1.452       .  A
C776        C792   1.445       .  S
C777        C778   1.460       .  A
C778        C781   1.453       .  S
C779        C782   1.399       .  A
C779        C786   1.411       .  A
C780        N797   1.157       .  T
C781        N799   1.158       .  T
C782        C783   1.416       .  A
C782        C787   1.455   1_565  S
C783        C784   1.449       .  A
C783        C789   1.448   1_565  S
C784        C785   1.445       .  A
C785        C786   1.434       .  A
C785        C788   1.449       .  S
C786        C790   1.451       .  S
C787        N794   1.157       .  T
C788        N795   1.158       .  T
C789        N793   1.156       .  T
C790        N796   1.157       .  T
C791        N800   1.157       .  T
C792        N798   1.158       .  T
C801        C802   1.404       .  A
C801        C806   1.426       .  A
C801        C819   1.455       .  S
C802        C807   1.518       .  S
C802        C803   1.404       .  A
C803        C804   1.418       .  A
C803        C808   1.455       .  S
C804        C805   1.453       .  A
C804        C820   1.454       .  S
C805        C806   1.449       .  A
C806        C809   1.446       .  S
C807        C810   1.406       .  A
C807        C814   1.404       .  A
C808        N825   1.157       .  T
C809        N827   1.158       .  T
C810        C811   1.423       .  A
C810        C815   1.455       .  S
C811        C812   1.442       .  A
C811        C817   1.441       .  S
C812        C813   1.446       .  A
C813        C814   1.414       .  A
C813        C816   1.452       .  S
C814        C818   1.453       .  S
C815        N822   1.157       .  T
C816        N823   1.157       .  T
C817        N821   1.156       .  T
C818        N824   1.157       .  T
C819        N828   1.157       .  T
C820        N826   1.158       .  T
C829        C830   1.419       .  A
C829        C834   1.436       .  A
C829        C847   1.451       .  S
C830        C835   1.534       .  S
C830        C831   1.414       .  A
C831        C832   1.407       .  A
C831        C836   1.448       .  S
C832        C833   1.414       .  A
C832        C848   1.447       .  S
C833        C834   1.449       .  A
C834        C837   1.448       .  S
C835        C838   1.423       .  A
C835        C842   1.413       .  A
C836        N853   1.157       .  T
C837        N855   1.158       .  T
C838        C839   1.433       .  A
C838        C843   1.447       .  S
C839        C840   1.440       .  A
C839        C845   1.452       .  S
C840        C841   1.431       .  A
C841        C842   1.406       .  A
C841        C844   1.449       .  S
C842        C846   1.451       .  S
C843        N850   1.157       .  T
C844        N851   1.158       .  T
C845        N849   1.158       .  T
C846        N852   1.157       .  T
C847        N856   1.158       .  T
C848        N854   1.158       .  T
C857        C858   1.406       .  A
C857        C862   1.407       .  A
C857        C875   1.452       .  S
C858        C863   1.508       .  S
C858        C859   1.407       .  A
C859        C860   1.419       .  A
C859        C864   1.453       .  S
C860        C861   1.437       .  A
C860        C876   1.445       .  S
C861        C862   1.431       .  A
C862        C865   1.443       .  S
C863        C866   1.400       .  A
C863        C870   1.403       .  A
C864        N881   1.157       .  T
C865        N883   1.157       .  T
C866        C867   1.408       .  A
C866        C871   1.455       .  S
C867        C868   1.443       .  A
C867        C873   1.447       .  S
C868        C869   1.447       .  A
C869        C870   1.425       .  A
C869        C872   1.439       .  S
C870        C874   1.456       .  S
C871        N878   1.157       .  T
C872        N879   1.157       .  T
C873        N877   1.157       .  T
C874        N880   1.157       .  T
C875        N884   1.157       .  T
C876        N882   1.157       .  T
C885        C886   1.407       .  A
C885        C890   1.429       .  A
C885        C903   1.454       .  S
C886        C891   1.523       .  S
C886        C887   1.405       .  A
C887        C888   1.418       .  A
C887        C892   1.450       .  S
C888        C889   1.444       .  A
C888        C904   1.452       .  S
C889        C890   1.448       .  A
C890        C893   1.444       .  S
C891        C894   1.403       .  A
C891        C898   1.402       .  A
C892        N909   1.157       .  T
C893        N911   1.158   1_565  T
C894        C895   1.428       .  A
C894        C899   1.456       .  S
C895        C896   1.453       .  A
C895        C901   1.446       .  S
C896        C897   1.449       .  A
C897        C898   1.423       .  A
C897        C900   1.447       .  S
C898        C902   1.451       .  S
C899        N906   1.157       .  T
C900        N907   1.156       .  T
C901        N905   1.158       .  T
C902        N908   1.157       .  T
C903        N912   1.157   1_565  T
C904        N910   1.158       .  T
C913        C914   1.404       .  A
C913        C918   1.402       .  A
C913        C931   1.455       .  S
C914        C919   1.511       .  S
C914        C915   1.416       .  A
C915        C916   1.431       .  A
C915        C920   1.448       .  S
C916        C917   1.429       .  A
C916        C932   1.448       .  S
C917        C918   1.438       .  A
C918        C921   1.453       .  S
C919        C922   1.412       .  A
C919        C926   1.400       .  A
C920        N937   1.157       .  T
C921        N939   1.158       .  T
C922        C923   1.433   1_545  A
C922        C927   1.450       .  S
C923        C924   1.438       .  A
C923        C929   1.439       .  S
C924        C925   1.443       .  A
C925        C926   1.406   1_565  A
C925        C928   1.444       .  S
C926        C930   1.455       .  S
C927        N934   1.157       .  T
C928        N935   1.158       .  T
C929        N933   1.155       .  T
C930        N936   1.157       .  T
C931        N940   1.157   1_545  T
C932        N938   1.157       .  T
C941        C942   1.412       .  A
C941        C946   1.423       .  A
C941        C959   1.457       .  S
C942        C947   1.538       .  S
C942        C943   1.415       .  A
C943        C944   1.426       .  A
C943        C948   1.450       .  S
C944        C945   1.439       .  A
C944        C960   1.452       .  S
C945        C946   1.450       .  A
C946        C949   1.449       .  S
C947        C950   1.409       .  A
C947        C954   1.409       .  A
C948        N965   1.157       .  T
C949        N967   1.158       .  T
C950        C951   1.427       .  A
C950        C955   1.452       .  S
C951        C952   1.445       .  A
C951        C957   1.447       .  S
C952        C953   1.452       .  A
C953        C954   1.426       .  A
C953        C956   1.447       .  S
C954        C958   1.457       .  S
C955        N962   1.157       .  T
C956        N963   1.157       .  T
C957        N961   1.156   1_455  T
C958        N964   1.157       .  T
C959        N968   1.157       .  T
C960        N966   1.157       .  T
C969        C970   1.413       .  A
C969        C974   1.419       .  A
C969        C987   1.454       .  S
C970        C975   1.541       .  S
C970        C971   1.414       .  A
C971        C972   1.436       .  A
C971        C976   1.454       .  S
C972        C973   1.448       .  A
C972        C988   1.446       .  S
C973        C974   1.439       .  A
C974        C977   1.450       .  S
C975        C978   1.415       .  A
C975        C982   1.407       .  A
C976        N993   1.158       .  T
C977        N995   1.157       .  T
C978        C979   1.431       .  A
C978        C983   1.450       .  S
C979        C980   1.447       .  A
C979        C985   1.443       .  S
C980        C981   1.448       .  A
C981        C982   1.418       .  A
C981        C984   1.446       .  S
C982        C986   1.455       .  S
C983        N990   1.157       .  T
C984        N991   1.157       .  T
C985        N989   1.158       .  T
C986        N992   1.157       .  T
C987        N996   1.157       .  T
C988        N994   1.156       .  T
C997        C998   1.408       .  A
C997       C1002   1.424       .  A
C997       C1015   1.451       .  S
C998       C1003   1.522   1_455  S
C998        C999   1.412       .  A
C999       C1000   1.419       .  A
C999       C1004   1.454       .  S
C1000      C1001   1.443       .  A
C1000      C1016   1.454       .  S
C1001      C1002   1.444       .  A
C1002      C1005   1.452       .  S
C1003      C1006   1.418       .  A
C1003      C1010   1.402       .  A
C1004      N1021   1.157   1_455  T
C1005      N1023   1.158       .  T
C1006      C1007   1.434       .  A
C1006      C1011   1.449       .  S
C1007      C1008   1.432       .  A
C1007      C1013   1.449       .  S
C1008      C1009   1.445       .  A
C1009      C1010   1.406       .  A
C1009      C1012   1.454       .  S
C1010      C1014   1.454   1_655  S
C1011      N1018   1.157       .  T
C1012      N1019   1.158       .  T
C1013      N1017   1.157       .  T
C1014      N1020   1.157       .  T
C1015      N1024   1.157   1_455  T
C1016      N1022   1.158       .  T
C1025      C1026   1.412       .  A
C1025      C1030   1.418       .  A
C1025      C1043   1.452       .  S
C1026      C1031   1.546       .  S
C1026      C1027   1.417       .  A
C1027      C1028   1.436       .  A
C1027      C1032   1.450       .  S
C1028      C1029   1.448       .  A
C1028      C1044   1.450       .  S
C1029      C1030   1.444       .  A
C1030      C1033   1.450       .  S
C1031      C1034   1.411       .  A
C1031      C1038   1.416       .  A
C1032      N1049   1.157       .  T
C1033      N1051   1.157       .  T
C1034      C1035   1.418       .  A
C1034      C1039   1.451       .  S
C1035      C1036   1.442       .  A
C1035      C1041   1.448       .  S
C1036      C1037   1.451       .  A
C1037      C1038   1.437       .  A
C1037      C1040   1.448       .  S
C1038      C1042   1.451       .  S
C1039      N1046   1.157       .  T
C1040      N1047   1.157       .  T
C1041      N1045   1.157       .  T
C1042      N1048   1.157       .  T
C1043      N1052   1.157       .  T
C1044      N1050   1.157       .  T
C1053      C1054   1.406       .  A
C1053      C1058   1.429       .  A
C1053      C1071   1.453       .  S
C1054      C1059   1.517       .  S
C1054      C1055   1.401       .  A
C1055      C1056   1.415       .  A
C1055      C1060   1.456       .  S
C1056      C1057   1.454       .  A
C1056      C1072   1.454       .  S
C1057      C1058   1.447       .  A
C1058      C1061   1.447       .  S
C1059      C1062   1.402       .  A
C1059      C1066   1.415       .  A
C1060      N1077   1.157       .  T
C1061      N1079   1.158       .  T
C1062      C1063   1.405       .  A
C1062      C1067   1.452       .  S
C1063      C1064   1.442       .  A
C1063      C1069   1.454       .  S
C1064      C1065   1.431       .  A
C1065      C1066   1.434       .  A
C1065      C1068   1.448       .  S
C1066      C1070   1.449       .  S
C1067      N1074   1.157       .  T
C1068      N1075   1.157       .  T
C1069      N1073   1.158       .  T
C1070      N1076   1.157       .  T
C1071      N1080   1.157       .  T
C1072      N1078   1.158       .  T
C1081      C1082   1.406       .  A
C1081      C1086   1.426       .  A
C1081      C1099   1.452       .  S
C1082      C1087   1.534       .  S
C1082      C1083   1.407       .  A
C1083      C1084   1.429       .  A
C1083      C1088   1.454       .  S
C1084      C1085   1.451       .  A
C1084      C1100   1.450       .  S
C1085      C1086   1.448       .  A
C1086      C1089   1.452       .  S
C1087      C1090   1.401       .  A
C1087      C1094   1.401       .  A
C1088      N1105   1.157       .  T
C1089      N1107   1.157       .  T
C1090      C1091   1.433       .  A
C1090      C1095   1.458       .  S
C1091      C1092   1.462       .  A
C1091      C1097   1.445       .  S
C1092      C1093   1.454       .  A
C1093      C1094   1.430       .  A
C1093      C1096   1.443       .  S
C1094      C1098   1.455       .  S
C1095      N1102   1.157       .  T
C1096      N1103   1.158   1_455  T
C1097      N1101   1.157       .  T
C1098      N1104   1.157       .  T
C1099      N1108   1.157       .  T
C1100      N1106   1.158       .  T
C1109      C1110   1.410       .  A
C1109      C1114   1.428       .  A
C1109      C1127   1.453       .  S
C1110      C1115   1.545       .  S
C1110      C1111   1.415       .  A
C1111      C1112   1.424       .  A
C1111      C1116   1.450       .  S
C1112      C1113   1.444       .  A
C1112      C1128   1.442       .  S
C1113      C1114   1.456       .  A
C1114      C1117   1.449       .  S
C1115      C1118   1.418       .  A
C1115      C1122   1.410       .  A
C1116      N1133   1.157       .  T
C1117      N1135   1.158       .  T
C1118      C1119   1.432       .  A
C1118      C1123   1.452       .  S
C1119      C1120   1.447       .  A
C1119      C1125   1.450       .  S
C1120      C1121   1.446       .  A
C1121      C1122   1.420       .  A
C1121      C1124   1.450       .  S
C1122      C1126   1.451       .  S
C1123      N1130   1.157       .  T
C1124      N1131   1.158       .  T
C1125      N1129   1.157       .  T
C1126      N1132   1.157       .  T
C1127      N1136   1.157       .  T
C1128      N1134   1.158       .  T
C1137      C1138   1.402       .  A
C1137      C1142   1.405       .  A
C1137      C1155   1.455   1_655  S
C1138      C1143   1.516       .  S
C1138      C1139   1.416       .  A
C1139      C1140   1.432       .  A
C1139      C1144   1.448       .  S
C1140      C1141   1.432       .  A
C1140      C1156   1.449       .  S
C1141      C1142   1.445       .  A
C1142      C1145   1.454       .  S
C1143      C1146   1.411       .  A
C1143      C1150   1.403   1_655  A
C1144      N1161   1.157       .  T
C1145      N1163   1.158       .  T
C1146      C1147   1.430   1_655  A
C1146      C1151   1.450       .  S
C1147      C1148   1.442       .  A
C1147      C1153   1.448       .  S
C1148      C1149   1.448       .  A
C1149      C1150   1.413       .  A
C1149      C1152   1.451       .  S
C1150      C1154   1.456   1_455  S
C1151      N1158   1.157       .  T
C1152      N1159   1.157       .  T
C1153      N1157   1.158       .  T
C1154      N1160   1.157       .  T
C1155      N1164   1.157       .  T
C1156      N1162   1.157       .  T
C1165      C1166   1.410       .  A
C1165      C1170   1.434       .  A
C1165      C1183   1.453       .  S
C1166      C1171   1.544       .  S
C1166      C1167   1.408       .  A
C1167      C1168   1.430       .  A
C1167      C1172   1.454       .  S
C1168      C1169   1.451       .  A
C1168      C1184   1.447       .  S
C1169      C1170   1.453       .  A
C1170      C1173   1.445       .  S
C1171      C1174   1.409       .  A
C1171      C1178   1.416       .  A
C1172      N1189   1.157       .  T
C1173      N1191   1.158       .  T
C1174      C1175   1.425       .  A
C1174      C1179   1.455       .  S
C1175      C1176   1.454       .  A
C1175      C1181   1.454       .  S
C1176      C1177   1.442       .  A
C1177      C1178   1.435       .  A
C1177      C1180   1.451       .  S
C1178      C1182   1.450       .  S
C1179      N1186   1.157       .  T
C1180      N1187   1.157       .  T
C1181      N1185   1.158       .  T
C1182      N1188   1.157       .  T
C1183      N1192   1.157       .  T
C1184      N1190   1.157       .  T
C1193      C1194   1.404       .  A
C1193      C1198   1.422       .  A
C1193      C1211   1.454       .  S
C1194      C1199   1.522       .  S
C1194      C1195   1.408       .  A
C1195      C1196   1.430       .  A
C1195      C1200   1.452       .  S
C1196      C1197   1.447       .  A
C1196      C1212   1.446       .  S
C1197      C1198   1.448       .  A
C1198      C1201   1.449       .  S
C1199      C1202   1.402       .  A
C1199      C1206   1.415       .  A
C1200      N1217   1.157       .  T
C1201      N1219   1.157       .  T
C1202      C1203   1.413       .  A
C1202      C1207   1.453       .  S
C1203      C1204   1.449       .  A
C1203      C1209   1.454       .  S
C1204      C1205   1.432       .  A
C1205      C1206   1.430       .  A
C1205      C1208   1.449       .  S
C1206      C1210   1.447       .  S
C1207      N1214   1.157       .  T
C1208      N1215   1.157       .  T
C1209      N1213   1.158       .  T
C1210      N1216   1.157       .  T
C1211      N1220   1.157       .  T
C1212      N1218   1.158       .  T
C1221      C1222   1.413       .  A
C1221      C1226   1.409       .  A
C1221      C1239   1.450       .  S
C1222      C1227   1.546       .  S
C1222      C1223   1.423       .  A
C1223      C1224   1.437       .  A
C1223      C1228   1.449       .  S
C1224      C1225   1.445       .  A
C1224      C1240   1.447       .  S
C1225      C1226   1.434       .  A
C1226      C1229   1.448       .  S
C1227      C1230   1.411       .  A
C1227      C1234   1.414       .  A
C1228      N1245   1.157       .  T
C1229      N1247   1.158       .  T
C1230      C1231   1.427       .  A
C1230      C1235   1.457       .  S
C1231      C1232   1.457       .  A
C1231      C1237   1.455       .  S
C1232      C1233   1.441       .  A
C1233      C1234   1.432       .  A
C1233      C1236   1.448       .  S
C1234      C1238   1.451       .  S
C1235      N1242   1.157       .  T
C1236      N1243   1.157       .  T
C1237      N1241   1.158       .  T
C1238      N1244   1.157   1_565  T
C1239      N1248   1.157       .  T
C1240      N1246   1.157   1_565  T
C1249      C1250   1.406       .  A
C1249      C1254   1.423       .  A
C1249      C1267   1.455       .  S
C1250      C1255   1.534       .  S
C1250      C1251   1.408       .  A
C1251      C1252   1.431       .  A
C1251      C1256   1.451       .  S
C1252      C1253   1.453       .  A
C1252      C1268   1.451       .  S
C1253      C1254   1.444       .  A
C1254      C1257   1.439       .  S
C1255      C1258   1.408       .  A
C1255      C1262   1.408       .  A
C1256      N1273   1.157       .  T
C1257      N1275   1.155       .  T
C1258      C1259   1.430       .  A
C1258      C1263   1.452       .  S
C1259      C1260   1.448       .  A
C1259      C1265   1.447       .  S
C1260      C1261   1.447       .  A
C1261      C1262   1.426       .  A
C1261      C1264   1.444       .  S
C1262      C1266   1.455       .  S
C1263      N1270   1.157       .  T
C1264      N1271   1.158       .  T
C1265      N1269   1.157       .  T
C1266      N1272   1.157       .  T
C1267      N1276   1.157       .  T
C1268      N1274   1.157       .  T
C1277      C1278   1.424       .  A
C1277      C1282   1.436       .  A
C1277      C1295   1.450       .  S
C1278      C1283   1.528       .  S
C1278      C1279   1.406       .  A
C1279      C1280   1.398       .  A
C1279      C1284   1.450       .  S
C1280      C1281   1.430       .  A
C1280      C1296   1.449       .  S
C1281      C1282   1.441       .  A
C1282      C1285   1.447       .  S
C1283      C1286   1.416       .  A
C1283      C1290   1.413       .  A
C1284      N1301   1.157       .  T
C1285      N1303   1.157       .  T
C1286      C1287   1.413   1_545  A
C1286      C1291   1.454       .  S
C1287      C1288   1.436       .  A
C1287      C1293   1.446       .  S
C1288      C1289   1.445       .  A
C1289      C1290   1.423   1_565  A
C1289      C1292   1.451       .  S
C1290      C1294   1.451   1_545  S
C1291      N1298   1.157       .  T
C1292      N1299   1.157       .  T
C1293      N1297   1.158       .  T
C1294      N1300   1.157       .  T
C1295      N1304   1.157       .  T
C1296      N1302   1.157       .  T
C1305      C1306   1.408       .  A
C1305      C1310   1.423       .  A
C1305      C1323   1.457       .  S
C1306      C1311   1.527       .  S
C1306      C1307   1.409       .  A
C1307      C1308   1.422       .  A
C1307      C1312   1.453       .  S
C1308      C1309   1.435       .  A
C1308      C1324   1.446       .  S
C1309      C1310   1.456       .  A
C1310      C1313   1.455       .  S
C1311      C1314   1.409       .  A
C1311      C1318   1.408       .  A
C1312      N1329   1.157       .  T
C1313      N1331   1.158       .  T
C1314      C1315   1.416       .  A
C1314      C1319   1.452       .  S
C1315      C1316   1.444       .  A
C1315      C1321   1.447       .  S
C1316      C1317   1.452       .  A
C1317      C1318   1.421       .  A
C1317      C1320   1.449       .  S
C1318      C1322   1.453       .  S
C1319      N1326   1.157       .  T
C1320      N1327   1.157       .  T
C1321      N1325   1.158       .  T
C1322      N1328   1.157       .  T
C1323      N1332   1.157       .  T
C1324      N1330   1.157       .  T
C1333      C1334   1.416       .  A
C1333      C1338   1.431       .  A
C1333      C1351   1.451       .  S
C1334      C1339   1.527       .  S
C1334      C1335   1.402       .  A
C1335      C1336   1.421       .  A
C1335      C1340   1.455       .  S
C1336      C1337   1.452       .  A
C1336      C1352   1.447       .  S
C1337      C1338   1.439       .  A
C1338      C1341   1.447       .  S
C1339      C1342   1.400       .  A
C1339      C1346   1.414       .  A
C1340      N1357   1.157       .  T
C1341      N1359   1.158       .  T
C1342      C1343   1.419       .  A
C1342      C1347   1.457       .  S
C1343      C1344   1.453       .  A
C1343      C1349   1.449       .  S
C1344      C1345   1.445       .  A
C1345      C1346   1.430       .  A
C1345      C1348   1.450       .  S
C1346      C1350   1.451       .  S
C1347      N1354   1.157       .  T
C1348      N1355   1.158       .  T
C1349      N1353   1.157       .  T
C1350      N1356   1.157       .  T
C1351      N1360   1.157       .  T
C1352      N1358   1.158       .  T
C1361      C1362   1.400       .  A
C1361      C1366   1.398       .  A
C1361      C1379   1.454       .  S
C1362      C1367   1.500       .  S
C1362      C1363   1.410       .  A
C1363      C1364   1.422       .  A
C1363      C1368   1.453       .  S
C1364      C1365   1.441       .  A
C1364      C1380   1.446       .  S
C1365      C1366   1.437       .  A
C1366      C1369   1.444       .  S
C1367      C1370   1.403       .  A
C1367      C1374   1.412       .  A
C1368      N1385   1.157       .  T
C1369      N1387   1.157       .  T
C1370      C1371   1.404       .  A
C1370      C1375   1.453       .  S
C1371      C1372   1.442       .  A
C1371      C1377   1.454       .  S
C1372      C1373   1.442       .  A
C1373      C1374   1.417       .  A
C1373      C1376   1.453       .  S
C1374      C1378   1.454       .  S
C1375      N1382   1.158       .  T
C1376      N1383   1.157       .  T
C1377      N1381   1.158       .  T
C1378      N1384   1.157       .  T
C1379      N1388   1.157       .  T
C1380      N1386   1.157       .  T
C1389      C1390   1.411       .  A
C1389      C1394   1.427       .  A
C1389      C1407   1.455       .  S
C1390      C1395   1.522       .  S
C1390      C1391   1.397       .  A
C1391      C1392   1.419       .  A
C1391      C1396   1.454       .  S
C1392      C1393   1.460       .  A
C1392      C1408   1.454       .  S
C1393      C1394   1.444       .  A
C1394      C1397   1.446       .  S
C1395      C1398   1.409       .  A
C1395      C1402   1.397       .  A
C1396      N1413   1.157       .  T
C1397      N1415   1.158       .  T
C1398      C1399   1.431       .  A
C1398      C1403   1.452       .  S
C1399      C1400   1.450       .  A
C1399      C1405   1.451       .  S
C1400      C1401   1.448       .  A
C1401      C1402   1.411       .  A
C1401      C1404   1.446   1_455  S
C1402      C1406   1.456   1_455  S
C1403      N1410   1.157       .  T
C1404      N1411   1.158       .  T
C1405      N1409   1.158       .  T
C1406      N1412   1.157       .  T
C1407      N1416   1.157       .  T
C1408      N1414   1.158       .  T
C1417      C1418   1.407       .  A
C1417      C1422   1.422       .  A
C1417      C1435   1.454       .  S
C1418      C1423   1.506       .  S
C1418      C1419   1.399       .  A
C1419      C1420   1.405       .  A
C1419      C1424   1.455       .  S
C1420      C1421   1.448       .  A
C1420      C1436   1.453       .  S
C1421      C1422   1.446       .  A
C1422      C1425   1.446       .  S
C1423      C1426   1.402       .  A
C1423      C1430   1.400       .  A
C1424      N1441   1.157       .  T
C1425      N1443   1.158       .  T
C1426      C1427   1.421       .  A
C1426      C1431   1.453       .  S
C1427      C1428   1.450       .  A
C1427      C1433   1.453       .  S
C1428      C1429   1.453       .  A
C1429      C1430   1.412       .  A
C1429      C1432   1.446       .  S
C1430      C1434   1.462       .  S
C1431      N1438   1.157       .  T
C1432      N1439   1.157       .  T
C1433      N1437   1.157       .  T
C1434      N1440   1.157       .  T
C1435      N1444   1.157       .  T
C1436      N1442   1.158       .  T
C1445      C1446   1.394       .  A
C1445      C1450   1.401       .  A
C1445      C1463   1.452       .  S
C1446      C1451   1.522       .  S
C1446      C1447   1.415       .  A
C1447      C1448   1.438       .  A
C1447      C1452   1.448   1_565  S
C1448      C1449   1.442       .  A
C1448      C1464   1.448       .  S
C1449      C1450   1.446       .  A
C1450      C1453   1.449       .  S
C1451      C1454   1.399       .  A
C1451      C1458   1.407       .  A
C1452      N1469   1.157       .  T
C1453      N1471   1.157       .  T
C1454      C1455   1.429       .  A
C1454      C1459   1.456       .  S
C1455      C1456   1.456       .  A
C1455      C1461   1.442   1_565  S
C1456      C1457   1.445       .  A
C1457      C1458   1.424       .  A
C1457      C1460   1.449       .  S
C1458      C1462   1.453       .  S
C1459      N1466   1.157       .  T
C1460      N1467   1.157       .  T
C1461      N1465   1.158       .  T
C1462      N1468   1.157       .  T
C1463      N1472   1.157       .  T
C1464      N1470   1.157       .  T
C1473      C1474   1.406       .  A
C1473      C1478   1.419       .  A
C1473      C1491   1.451       .  S
C1474      C1479   1.510       .  S
C1474      C1475   1.398       .  A
C1475      C1476   1.414       .  A
C1475      C1480   1.457       .  S
C1476      C1477   1.452       .  A
C1476      C1492   1.450       .  S
C1477      C1478   1.444       .  A
C1478      C1481   1.450       .  S
C1479      C1482   1.402       .  A
C1479      C1486   1.407       .  A
C1480      N1497   1.157       .  T
C1481      N1499   1.158       .  T
C1482      C1483   1.416       .  A
C1482      C1487   1.453       .  S
C1483      C1484   1.451       .  A
C1483      C1489   1.452       .  S
C1484      C1485   1.436       .  A
C1485      C1486   1.415       .  A
C1485      C1488   1.435       .  S
C1486      C1490   1.455       .  S
C1487      N1494   1.157       .  T
C1488      N1495   1.154       .  T
C1489      N1493   1.158       .  T
C1490      N1496   1.157       .  T
C1491      N1500   1.156       .  T
C1492      N1498   1.157       .  T
C1501      C1502   1.407       .  A
C1501      C1506   1.418       .  A
C1501      C1519   1.450       .  S
C1502      C1507   1.532       .  S
C1502      C1503   1.412       .  A
C1503      C1504   1.428       .  A
C1503      C1508   1.451       .  S
C1504      C1505   1.451       .  A
C1504      C1520   1.455       .  S
C1505      C1506   1.443       .  A
C1506      C1509   1.449       .  S
C1507      C1510   1.406       .  A
C1507      C1514   1.412       .  A
C1508      N1525   1.157   1_565  T
C1509      N1527   1.158       .  T
C1510      C1511   1.423       .  A
C1510      C1515   1.452       .  S
C1511      C1512   1.449       .  A
C1511      C1517   1.451       .  S
C1512      C1513   1.445       .  A
C1513      C1514   1.432       .  A
C1513      C1516   1.446       .  S
C1514      C1518   1.452       .  S
C1515      N1522   1.157       .  T
C1516      N1523   1.157       .  T
C1517      N1521   1.158       .  T
C1518      N1524   1.157       .  T
C1519      N1528   1.157       .  T
C1520      N1526   1.158   1_565  T
C1529      C1530   1.409       .  A
C1529      C1534   1.418   1_545  A
C1529      C1547   1.453       .  S
C1530      C1535   1.506       .  S
C1530      C1531   1.400       .  A
C1531      C1532   1.409   1_545  A
C1531      C1536   1.452       .  S
C1532      C1533   1.432       .  A
C1532      C1548   1.446       .  S
C1533      C1534   1.443       .  A
C1534      C1537   1.454       .  S
C1535      C1538   1.406       .  A
C1535      C1542   1.400       .  A
C1536      N1553   1.157       .  T
C1537      N1555   1.158       .  T
C1538      C1539   1.427       .  A
C1538      C1543   1.450       .  S
C1539      C1540   1.444       .  A
C1539      C1545   1.449       .  S
C1540      C1541   1.440       .  A
C1541      C1542   1.405       .  A
C1541      C1544   1.448       .  S
C1542      C1546   1.455       .  S
C1543      N1550   1.157       .  T
C1544      N1551   1.156       .  T
C1545      N1549   1.158       .  T
C1546      N1552   1.156   1_545  T
C1547      N1556   1.157       .  T
C1548      N1554   1.158       .  T
C1557      C1558   1.412       .  A
C1557      C1562   1.426       .  A
C1557      C1575   1.453       .  S
C1558      C1563   1.530       .  S
C1558      C1559   1.409       .  A
C1559      C1560   1.413       .  A
C1559      C1564   1.453       .  S
C1560      C1561   1.443       .  A
C1560      C1576   1.450       .  S
C1561      C1562   1.450       .  A
C1562      C1565   1.450       .  S
C1563      C1566   1.409       .  A
C1563      C1570   1.414       .  A
C1564      N1581   1.157   1_455  T
C1565      N1583   1.157       .  T
C1566      C1567   1.409       .  A
C1566      C1571   1.452       .  S
C1567      C1568   1.441       .  A
C1567      C1573   1.450       .  S
C1568      C1569   1.447       .  A
C1569      C1570   1.427       .  A
C1569      C1572   1.449       .  S
C1570      C1574   1.451       .  S
C1571      N1578   1.157       .  T
C1572      N1579   1.157       .  T
C1573      N1577   1.158       .  T
C1574      N1580   1.157       .  T
C1575      N1584   1.157       .  T
C1576      N1582   1.158   1_455  T
C1585      C1586   1.411       .  A
C1585      C1590   1.426       .  A
C1585      C1603   1.452       .  S
C1586      C1591   1.526       .  S
C1586      C1587   1.404       .  A
C1587      C1588   1.418       .  A
C1587      C1592   1.453       .  S
C1588      C1589   1.449       .  A
C1588      C1604   1.448       .  S
C1589      C1590   1.445       .  A
C1590      C1593   1.452       .  S
C1591      C1594   1.413       .  A
C1591      C1598   1.405       .  A
C1592      N1609   1.157       .  T
C1593      N1611   1.157       .  T
C1594      C1595   1.427       .  A
C1594      C1599   1.452       .  S
C1595      C1596   1.440       .  A
C1595      C1601   1.448       .  S
C1596      C1597   1.441       .  A
C1597      C1598   1.417       .  A
C1597      C1600   1.446       .  S
C1598      C1602   1.453       .  S
C1599      N1606   1.157       .  T
C1600      N1607   1.156       .  T
C1601      N1605   1.157       .  T
C1602      N1608   1.157       .  T
C1603      N1612   1.157       .  T
C1604      N1610   1.157       .  T
C1613      C1614   1.399       .  A
C1613      C1618   1.416       .  A
C1613      C1631   1.454       .  S
C1614      C1619   1.511       .  S
C1614      C1615   1.402       .  A
C1615      C1616   1.424   1_655  A
C1615      C1620   1.455       .  S
C1616      C1617   1.450       .  A
C1616      C1632   1.445       .  S
C1617      C1618   1.455   1_455  A
C1618      C1621   1.454       .  S
C1619      C1622   1.400       .  A
C1619      C1626   1.407       .  A
C1620      N1637   1.157       .  T
C1621      N1639   1.158       .  T
C1622      C1623   1.413       .  A
C1622      C1627   1.452       .  S
C1623      C1624   1.444       .  A
C1623      C1629   1.449       .  S
C1624      C1625   1.437       .  A
C1625      C1626   1.427       .  A
C1625      C1628   1.444       .  S
C1626      C1630   1.451       .  S
C1627      N1634   1.157       .  T
C1628      N1635   1.158       .  T
C1629      N1633   1.157       .  T
C1630      N1636   1.157       .  T
C1631      N1640   1.157       .  T
C1632      N1638   1.158       .  T
C1641      C1642   1.402       .  A
C1641      C1646   1.422       .  A
C1641      C1659   1.455       .  S
C1642      C1647   1.534       .  S
C1642      C1643   1.410       .  A
C1643      C1644   1.432       .  A
C1643      C1648   1.451       .  S
C1644      C1645   1.446       .  A
C1644      C1660   1.450       .  S
C1645      C1646   1.457       .  A
C1646      C1649   1.450       .  S
C1647      C1650   1.402       .  A
C1647      C1654   1.412       .  A
C1648      N1665   1.157       .  T
C1649      N1667   1.157       .  T
C1650      C1651   1.426       .  A
C1650      C1655   1.456       .  S
C1651      C1652   1.460       .  A
C1651      C1657   1.453       .  S
C1652      C1653   1.440       .  A
C1653      C1654   1.431       .  A
C1653      C1656   1.449       .  S
C1654      C1658   1.452       .  S
C1655      N1662   1.157       .  T
C1656      N1663   1.157       .  T
C1657      N1661   1.158       .  T
C1658      N1664   1.157       .  T
C1659      N1668   1.157       .  T
C1660      N1666   1.157       .  T
C1669      C1670   1.397       .  A
C1669      C1674   1.409       .  A
C1669      C1687   1.455       .  S
C1670      C1675   1.506       .  S
C1670      C1671   1.403   1_655  A
C1671      C1672   1.421       .  A
C1671      C1676   1.457       .  S
C1672      C1673   1.443       .  A
C1672      C1688   1.436       .  S
C1673      C1674   1.450   1_455  A
C1674      C1677   1.451       .  S
C1675      C1678   1.397       .  A
C1675      C1682   1.397       .  A
C1676      N1693   1.157       .  T
C1677      N1695   1.157       .  T
C1678      C1679   1.419       .  A
C1678      C1683   1.455       .  S
C1679      C1680   1.449       .  A
C1679      C1685   1.448       .  S
C1680      C1681   1.461       .  A
C1681      C1682   1.417       .  A
C1681      C1684   1.450       .  S
C1682      C1686   1.462       .  S
C1683      N1690   1.157       .  T
C1684      N1691   1.157       .  T
C1685      N1689   1.157       .  T
C1686      N1692   1.157       .  T
C1687      N1696   1.157       .  T
C1688      N1694   1.155       .  T
C1697      C1698   1.398       .  A
C1697      C1702   1.418       .  A
C1697      C1715   1.456       .  S
C1698      C1703   1.520       .  S
C1698      C1699   1.399       .  A
C1699      C1700   1.430       .  A
C1699      C1704   1.456       .  S
C1700      C1701   1.457       .  A
C1700      C1716   1.443       .  S
C1701      C1702   1.454       .  A
C1702      C1705   1.445       .  S
C1703      C1706   1.404       .  A
C1703      C1710   1.397       .  A
C1704      N1721   1.157       .  T
C1705      N1723   1.156       .  T
C1706      C1707   1.425       .  A
C1706      C1711   1.455       .  S
C1707      C1708   1.446       .  A
C1707      C1713   1.445       .  S
C1708      C1709   1.460       .  A
C1709      C1710   1.422       .  A
C1709      C1712   1.450       .  S
C1710      C1714   1.456       .  S
C1711      N1718   1.157       .  T
C1712      N1719   1.157       .  T
C1713      N1717   1.157       .  T
C1714      N1720   1.157       .  T
C1715      N1724   1.157       .  T
C1716      N1722   1.158       .  T
C1725      C1726   1.411       .  A
C1725      C1730   1.434       .  A
C1725      C1743   1.451       .  S
C1726      C1731   1.539       .  S
C1726      C1727   1.408       .  A
C1727      C1728   1.427       .  A
C1727      C1732   1.453       .  S
C1728      C1729   1.451       .  A
C1728      C1744   1.451       .  S
C1729      C1730   1.446       .  A
C1730      C1733   1.449       .  S
C1731      C1734   1.411       .  A
C1731      C1738   1.410       .  A
C1732      N1749   1.157       .  T
C1733      N1751   1.158       .  T
C1734      C1735   1.432       .  A
C1734      C1739   1.451       .  S
C1735      C1736   1.448       .  A
C1735      C1741   1.450       .  S
C1736      C1737   1.449       .  A
C1737      C1738   1.429       .  A
C1737      C1740   1.449       .  S
C1738      C1742   1.454       .  S
C1739      N1746   1.156       .  T
C1740      N1747   1.157       .  T
C1741      N1745   1.158       .  T
C1742      N1748   1.157       .  T
C1743      N1752   1.157       .  T
C1744      N1750   1.158       .  T
C1753      C1754   1.400       .  A
C1753      C1758   1.411       .  A
C1753      C1771   1.460       .  S
C1754      C1759   1.512       .  S
C1754      C1755   1.407       .  A
C1755      C1756   1.426       .  A
C1755      C1760   1.451       .  S
C1756      C1757   1.441       .  A
C1756      C1772   1.448       .  S
C1757      C1758   1.453       .  A
C1758      C1761   1.451       .  S
C1759      C1762   1.408       .  A
C1759      C1766   1.406       .  A
C1760      N1777   1.157       .  T
C1761      N1779   1.157       .  T
C1762      C1763   1.423       .  A
C1762      C1767   1.454       .  S
C1763      C1764   1.439       .  A
C1763      C1769   1.443       .  S
C1764      C1765   1.434       .  A
C1765      C1766   1.411       .  A
C1765      C1768   1.446       .  S
C1766      C1770   1.452       .  S
C1767      N1774   1.157       .  T
C1768      N1775   1.157       .  T
C1769      N1773   1.158       .  T
C1770      N1776   1.157       .  T
C1771      N1780   1.157       .  T
C1772      N1778   1.157       .  T
C1781      C1782   1.404       .  A
C1781      C1786   1.418       .  A
C1781      C1799   1.455       .  S
C1782      C1787   1.514       .  S
C1782      C1783   1.409       .  A
C1783      C1784   1.421       .  A
C1783      C1788   1.452       .  S
C1784      C1785   1.440       .  A
C1784      C1800   1.449       .  S
C1785      C1786   1.445       .  A
C1786      C1789   1.445       .  S
C1787      C1790   1.402       .  A
C1787      C1794   1.407       .  A
C1788      N1805   1.157       .  T
C1789      N1807   1.156       .  T
C1790      C1791   1.417       .  A
C1790      C1795   1.458       .  S
C1791      C1792   1.450       .  A
C1791      C1797   1.449       .  S
C1792      C1793   1.439       .  A
C1793      C1794   1.421       .  A
C1793      C1796   1.451       .  S
C1794      C1798   1.451       .  S
C1795      N1802   1.157       .  T
C1796      N1803   1.157       .  T
C1797      N1801   1.158       .  T
C1798      N1804   1.157       .  T
C1799      N1808   1.157       .  T
C1800      N1806   1.157       .  T
C1809      C1810   1.421       .  A
C1809      C1814   1.425       .  A
C1809      C1827   1.452       .  S
C1810      C1815   1.526       .  S
C1810      C1811   1.403       .  A
C1811      C1812   1.417       .  A
C1811      C1816   1.455       .  S
C1812      C1813   1.452       .  A
C1812      C1828   1.454       .  S
C1813      C1814   1.424       .  A
C1814      C1817   1.447       .  S
C1815      C1818   1.424       .  A
C1815      C1822   1.406       .  A
C1816      N1833   1.157       .  T
C1817      N1835   1.157       .  T
C1818      C1819   1.425       .  A
C1818      C1823   1.452       .  S
C1819      C1820   1.438       .  A
C1819      C1825   1.455       .  S
C1820      C1821   1.431       .  A
C1821      C1822   1.404       .  A
C1821      C1824   1.446       .  S
C1822      C1826   1.451       .  S
C1823      N1830   1.157       .  T
C1824      N1831   1.158       .  T
C1825      N1829   1.158       .  T
C1826      N1832   1.158       .  T
C1827      N1836   1.158       .  T
C1828      N1834   1.158       .  T
C1837      C1838   1.402       .  A
C1837      C1842   1.415       .  A
C1837      C1855   1.453       .  S
C1838      C1843   1.531       .  S
C1838      C1839   1.410       .  A
C1839      C1840   1.436       .  A
C1839      C1844   1.455       .  S
C1840      C1841   1.454       .  A
C1840      C1856   1.446       .  S
C1841      C1842   1.444       .  A
C1842      C1845   1.451       .  S
C1843      C1846   1.412       .  A
C1843      C1850   1.402       .  A
C1844      N1861   1.157       .  T
C1845      N1863   1.158       .  T
C1846      C1847   1.429       .  A
C1846      C1851   1.454       .  S
C1847      C1848   1.445       .  A
C1847      C1853   1.444       .  S
C1848      C1849   1.451       .  A
C1849      C1850   1.422       .  A
C1849      C1852   1.449       .  S
C1850      C1854   1.453       .  S
C1851      N1858   1.157       .  T
C1852      N1859   1.157       .  T
C1853      N1857   1.158       .  T
C1854      N1860   1.157       .  T
C1855      N1864   1.157       .  T
C1856      N1862   1.158       .  T
C1865      C1866   1.409       .  A
C1865      C1870   1.431       .  A
C1865      C1883   1.458       .  S
C1866      C1871   1.536       .  S
C1866      C1867   1.404       .  A
C1867      C1868   1.426       .  A
C1867      C1872   1.454       .  S
C1868      C1869   1.453       .  A
C1868      C1884   1.448       .  S
C1869      C1870   1.451       .  A
C1870      C1873   1.444       .  S
C1871      C1874   1.406       .  A
C1871      C1878   1.416       .  A
C1872      N1889   1.157       .  T
C1873      N1891   1.158       .  T
C1874      C1875   1.418       .  A
C1874      C1879   1.452       .  S
C1875      C1876   1.443       .  A
C1875      C1881   1.448       .  S
C1876      C1877   1.449       .  A
C1877      C1878   1.429       .  A
C1877      C1880   1.455       .  S
C1878      C1882   1.451       .  S
C1879      N1886   1.157       .  T
C1880      N1887   1.158       .  T
C1881      N1885   1.158       .  T
C1882      N1888   1.157       .  T
C1883      N1892   1.158       .  T
C1884      N1890   1.157       .  T
C1893      C1894   1.397       .  A
C1893      C1898   1.410       .  A
C1893      C1911   1.457       .  S
C1894      C1899   1.500       .  S
C1894      C1895   1.404   1_545  A
C1895      C1896   1.418       .  A
C1895      C1900   1.455       .  S
C1896      C1897   1.448       .  A
C1896      C1912   1.451       .  S
C1897      C1898   1.449   1_565  A
C1898      C1901   1.451       .  S
C1899      C1902   1.392       .  A
C1899      C1906   1.406       .  A
C1900      N1917   1.157       .  T
C1901      N1919   1.157       .  T
C1902      C1903   1.406       .  A
C1902      C1907   1.459       .  S
C1903      C1904   1.453       .  A
C1903      C1909   1.448       .  S
C1904      C1905   1.444       .  A
C1905      C1906   1.421       .  A
C1905      C1908   1.449       .  S
C1906      C1910   1.453       .  S
C1907      N1914   1.157       .  T
C1908      N1915   1.158       .  T
C1909      N1913   1.156       .  T
C1910      N1916   1.157       .  T
C1911      N1920   1.157       .  T
C1912      N1918   1.158       .  T
C1921      C1922   1.399       .  A
C1921      C1926   1.404       .  A
C1921      C1939   1.452       .  S
C1922      C1927   1.486       .  S
C1922      C1923   1.403       .  A
C1923      C1924   1.411       .  A
C1923      C1928   1.454       .  S
C1924      C1925   1.437       .  A
C1924      C1940   1.449       .  S
C1925      C1926   1.426       .  A
C1926      C1929   1.447       .  S
C1927      C1930   1.412       .  A
C1927      C1934   1.405       .  A
C1928      N1945   1.157       .  T
C1929      N1947   1.157       .  T
C1930      C1931   1.404       .  A
C1930      C1935   1.453       .  S
C1931      C1932   1.413       .  A
C1931      C1937   1.452       .  S
C1932      C1933   1.416       .  A
C1933      C1934   1.408       .  A
C1933      C1936   1.451       .  S
C1934      C1938   1.450       .  S
C1935      N1942   1.157       .  T
C1936      N1943   1.157       .  T
C1937      N1941   1.157       .  T
C1938      N1944   1.157       .  T
C1939      N1948   1.157       .  T
C1940      N1946   1.158       .  T
C1949      C1950   1.409       .  A
C1949      C1954   1.407       .  A
C1949      C1967   1.452       .  S
C1950      C1955   1.487       .  S
C1950      C1951   1.409       .  A
C1951      C1952   1.405       .  A
C1951      C1956   1.450       .  S
C1952      C1953   1.414       .  A
C1952      C1968   1.452       .  S
C1953      C1954   1.416       .  A
C1954      C1957   1.452       .  S
C1955      C1958   1.400       .  A
C1955      C1962   1.401       .  A
C1956      N1973   1.157       .  T
C1957      N1975   1.157       .  T
C1958      C1959   1.410       .  A
C1958      C1963   1.452       .  S
C1959      C1960   1.438       .  A
C1959      C1965   1.449   1_455  S
C1960      C1961   1.437       .  A
C1961      C1962   1.409       .  A
C1961      C1964   1.447       .  S
C1962      C1966   1.456       .  S
C1963      N1970   1.157       .  T
C1964      N1971   1.156       .  T
C1965      N1969   1.156       .  T
C1966      N1972   1.157       .  T
C1967      N1976   1.157       .  T
C1968      N1974   1.157       .  T
C1977      C1978   1.411       .  A
C1977      C1982   1.404       .  A
C1977      C1995   1.452       .  S
C1978      C1983   1.486       .  S
C1978      C1979   1.408       .  A
C1979      C1980   1.406       .  A
C1979      C1984   1.450       .  S
C1980      C1981   1.413       .  A
C1980      C1996   1.452       .  S
C1981      C1982   1.411       .  A
C1982      C1985   1.451       .  S
C1983      C1986   1.392       .  A
C1983      C1990   1.395       .  A
C1984      N2001   1.157       .  T
C1985      N2003   1.157       .  T
C1986      C1987   1.406       .  A
C1986      C1991   1.457       .  S
C1987      C1988   1.448       .  A
C1987      C1993   1.446       .  S
C1988      C1989   1.455       .  A
C1989      C1990   1.415       .  A
C1989      C1992   1.453   1_565  S
C1990      C1994   1.456       .  S
C1991      N1998   1.157       .  T
C1992      N1999   1.158       .  T
C1993      N1997   1.157       .  T
C1994      N2000   1.157       .  T
C1995      N2004   1.157       .  T
C1996      N2002   1.157       .  T
C2005      C2006   1.413       .  A
C2005      C2010   1.405       .  A
C2005      C2023   1.451       .  S
C2006      C2011   1.491       .  S
C2006      C2007   1.409       .  A
C2007      C2008   1.407       .  A
C2007      C2012   1.451       .  S
C2008      C2009   1.414       .  A
C2008      C2024   1.452       .  S
C2009      C2010   1.410       .  A
C2010      C2013   1.453       .  S
C2011      C2014   1.394       .  A
C2011      C2018   1.400       .  A
C2012      N2029   1.157       .  T
C2013      N2031   1.157       .  T
C2014      C2015   1.412       .  A
C2014      C2019   1.457       .  S
C2015      C2016   1.453       .  A
C2015      C2021   1.450   1_565  S
C2016      C2017   1.448       .  A
C2017      C2018   1.413       .  A
C2017      C2020   1.454       .  S
C2018      C2022   1.454       .  S
C2019      N2026   1.157       .  T
C2020      N2027   1.157       .  T
C2021      N2025   1.158       .  T
C2022      N2028   1.157       .  T
C2023      N2032   1.157       .  T
C2024      N2030   1.157       .  T
C2033      C2034   1.401       .  A
C2033      C2038   1.411       .  A
C2033      C2051   1.456       .  S
C2034      C2039   1.493       .  S
C2034      C2035   1.398       .  A
C2035      C2036   1.413       .  A
C2035      C2040   1.457       .  S
C2036      C2037   1.446       .  A
C2036      C2052   1.445       .  S
C2037      C2038   1.445       .  A
C2038      C2041   1.450       .  S
C2039      C2042   1.410       .  A
C2039      C2046   1.410       .  A
C2040      N2057   1.157       .  T
C2041      N2059   1.157       .  T
C2042      C2043   1.403       .  A
C2042      C2047   1.454       .  S
C2043      C2044   1.421       .  A
C2043      C2049   1.451       .  S
C2044      C2045   1.419       .  A
C2045      C2046   1.409       .  A
C2045      C2048   1.451       .  S
C2046      C2050   1.452       .  S
C2047      N2054   1.158       .  T
C2048      N2055   1.157       .  T
C2049      N2053   1.157       .  T
C2050      N2056   1.157       .  T
C2051      N2060   1.157       .  T
C2052      N2058   1.158       .  T
C2061      C2062   1.409       .  A
C2061      C2066   1.401       .  A
C2061      C2079   1.454       .  S
C2062      C2067   1.486       .  S
C2062      C2063   1.409       .  A
C2063      C2064   1.410       .  A
C2063      C2068   1.451       .  S
C2064      C2065   1.418       .  A
C2064      C2080   1.450       .  S
C2065      C2066   1.419       .  A
C2066      C2069   1.453       .  S
C2067      C2070   1.404       .  A
C2067      C2074   1.402       .  A
C2068      N2085   1.157       .  T
C2069      N2087   1.157       .  T
C2070      C2071   1.405       .  A
C2070      C2075   1.456       .  S
C2071      C2072   1.431       .  A
C2071      C2077   1.442       .  S
C2072      C2073   1.429       .  A
C2073      C2074   1.408       .  A
C2073      C2076   1.443       .  S
C2074      C2078   1.452       .  S
C2075      N2082   1.157       .  T
C2076      N2083   1.158       .  T
C2077      N2081   1.156       .  T
C2078      N2084   1.157       .  T
C2079      N2088   1.157       .  T
C2080      N2086   1.157       .  T
C2089      C2090   1.413       .  A
C2089      C2094   1.410       .  A
C2089      C2107   1.451       .  S
C2090      C2095   1.490       .  S
C2090      C2091   1.407       .  A
C2091      C2092   1.404       .  A
C2091      C2096   1.450       .  S
C2092      C2093   1.414       .  A
C2092      C2108   1.453       .  S
C2093      C2094   1.411       .  A
C2094      C2097   1.450       .  S
C2095      C2098   1.394       .  A
C2095      C2102   1.400       .  A
C2096      N2113   1.157       .  T
C2097      N2115   1.157       .  T
C2098      C2099   1.406       .  A
C2098      C2103   1.454       .  S
C2099      C2100   1.441       .  A
C2099      C2105   1.443       .  S
C2100      C2101   1.452       .  A
C2101      C2102   1.415       .  A
C2101      C2104   1.454       .  S
C2102      C2106   1.455       .  S
C2103      N2110   1.157       .  T
C2104      N2111   1.158       .  T
C2105      N2109   1.156       .  T
C2106      N2112   1.157       .  T
C2107      N2116   1.157       .  T
C2108      N2114   1.157       .  T
C2117      C2118   1.408       .  A
C2117      C2122   1.408       .  A
C2117      C2135   1.451       .  S
C2118      C2123   1.491       .  S
C2118      C2119   1.407       .  A
C2119      C2120   1.407       .  A
C2119      C2124   1.452       .  S
C2120      C2121   1.418       .  A
C2120      C2136   1.452       .  S
C2121      C2122   1.416       .  A
C2122      C2125   1.451       .  S
C2123      C2126   1.393       .  A
C2123      C2130   1.393       .  A
C2124      N2141   1.157       .  T
C2125      N2143   1.157       .  T
C2126      C2127   1.410       .  A
C2126      C2131   1.456       .  S
C2127      C2128   1.455       .  A
C2127      C2133   1.452       .  S
C2128      C2129   1.451       .  A
C2129      C2130   1.418       .  A
C2129      C2132   1.439       .  S
C2130      C2134   1.459       .  S
C2131      N2138   1.157       .  T
C2132      N2139   1.158       .  T
C2133      N2137   1.157       .  T
C2134      N2140   1.157       .  T
C2135      N2144   1.157       .  T
C2136      N2142   1.158       .  T
C2145      C2146   1.394       .  A
C2145      C2150   1.415       .  A
C2145      C2163   1.459       .  S
C2146      C2151   1.487       .  S
C2146      C2147   1.394       .  A
C2147      C2148   1.408       .  A
C2147      C2152   1.455       .  S
C2148      C2149   1.455       .  A
C2148      C2164   1.456       .  S
C2149      C2150   1.448       .  A
C2150      C2153   1.438       .  S
C2151      C2154   1.409       .  A
C2151      C2158   1.408       .  A
C2152      N2169   1.157       .  T
C2153      N2171   1.157       .  T
C2154      C2155   1.405       .  A
C2154      C2159   1.451       .  S
C2155      C2156   1.415       .  A
C2155      C2161   1.453       .  S
C2156      C2157   1.415       .  A
C2157      C2158   1.406       .  A
C2157      C2160   1.451       .  S
C2158      C2162   1.451       .  S
C2159      N2166   1.157       .  T
C2160      N2167   1.157       .  T
C2161      N2165   1.158       .  T
C2162      N2168   1.157       .  T
C2163      N2172   1.157       .  T
C2164      N2170   1.158       .  T
C2173      C2174   1.398       .  A
C2173      C2178   1.420       .  A
C2173      C2191   1.453       .  S
C2174      C2179   1.489       .  S
C2174      C2175   1.396       .  A
C2175      C2176   1.401       .  A
C2175      C2180   1.457       .  S
C2176      C2177   1.444       .  A
C2176      C2192   1.450       .  S
C2177      C2178   1.452       .  A
C2178      C2181   1.452       .  S
C2179      C2182   1.408       .  A
C2179      C2186   1.411       .  A
C2180      N2197   1.157       .  T
C2181      N2199   1.158       .  T
C2182      C2183   1.410       .  A
C2182      C2187   1.449       .  S
C2183      C2184   1.414       .  A
C2183      C2189   1.451       .  S
C2184      C2185   1.411       .  A
C2185      C2186   1.405       .  A
C2185      C2188   1.451       .  S
C2186      C2190   1.452       .  S
C2187      N2194   1.157       .  T
C2188      N2195   1.157       .  T
C2189      N2193   1.157       .  T
C2190      N2196   1.157       .  T
C2191      N2200   1.157       .  T
C2192      N2198   1.158       .  T
C2201      C2202   1.395       .  A
C2201      C2206   1.404       .  A
C2201      C2219   1.459       .  S
C2202      C2207   1.488       .  S
C2202      C2203   1.397       .  A
C2203      C2204   1.417       .  A
C2203      C2208   1.452       .  S
C2204      C2205   1.452       .  A
C2204      C2220   1.451       .  S
C2205      C2206   1.447       .  A
C2206      C2209   1.444       .  S
C2207      C2210   1.407       .  A
C2207      C2214   1.410       .  A
C2208      N2225   1.157       .  T
C2209      N2227   1.156       .  T
C2210      C2211   1.408       .  A
C2210      C2215   1.450       .  S
C2211      C2212   1.416       .  A
C2211      C2217   1.451       .  S
C2212      C2213   1.412       .  A
C2213      C2214   1.406       .  A
C2213      C2216   1.448       .  S
C2214      C2218   1.452       .  S
C2215      N2222   1.157       .  T
C2216      N2223   1.156       .  T
C2217      N2221   1.157       .  T
C2218      N2224   1.157       .  T
C2219      N2228   1.157       .  T
C2220      N2226   1.157       .  T
C2229      C2230   1.416       .  A
C2229      C2234   1.404       .  A
C2229      C2247   1.450       .  S
C2230      C2235   1.496       .  S
C2230      C2231   1.411       .  A
C2231      C2232   1.409       .  A
C2231      C2236   1.451       .  S
C2232      C2233   1.413       .  A
C2232      C2248   1.451       .  S
C2233      C2234   1.410       .  A
C2234      C2237   1.454       .  S
C2235      C2238   1.395       .  A
C2235      C2242   1.402       .  A
C2236      N2253   1.157       .  T
C2237      N2255   1.157       .  T
C2238      C2239   1.411       .  A
C2238      C2243   1.457       .  S
C2239      C2240   1.451       .  A
C2239      C2245   1.448       .  S
C2240      C2241   1.447       .  A
C2241      C2242   1.418       .  A
C2241      C2244   1.451       .  S
C2242      C2246   1.455       .  S
C2243      N2250   1.157       .  T
C2244      N2251   1.158       .  T
C2245      N2249   1.157       .  T
C2246      N2252   1.157       .  T
C2247      N2256   1.157       .  T
C2248      N2254   1.157       .  T
C2257      C2258   1.399       .  A
C2257      C2262   1.415       .  A
C2257      C2275   1.453       .  S
C2258      C2263   1.508       .  S
C2258      C2259   1.409       .  A
C2259      C2260   1.421       .  A
C2259      C2264   1.454       .  S
C2260      C2261   1.440       .  A
C2260      C2276   1.446       .  S
C2261      C2262   1.448       .  A
C2262      C2265   1.449       .  S
C2263      C2266   1.412       .  A
C2263      C2270   1.408       .  A
C2264      N2281   1.157       .  T
C2265      N2283   1.157       .  T
C2266      C2267   1.409       .  A
C2266      C2271   1.449       .  S
C2267      C2268   1.419       .  A
C2267      C2273   1.451   1_455  S
C2268      C2269   1.426       .  A
C2269      C2270   1.416       .  A
C2269      C2272   1.447       .  S
C2270      C2274   1.451       .  S
C2271      N2278   1.156   1_455  T
C2272      N2279   1.158   1_545  T
C2273      N2277   1.157       .  T
C2274      N2280   1.157       .  T
C2275      N2284   1.157   1_455  T
C2276      N2282   1.156       .  T
C2285      C2286   1.397       .  A
C2285      C2290   1.409       .  A
C2285      C2303   1.455       .  S
C2286      C2291   1.497       .  S
C2286      C2287   1.403       .  A
C2287      C2288   1.414       .  A
C2287      C2292   1.457       .  S
C2288      C2289   1.439       .  A
C2288      C2304   1.438       .  S
C2289      C2290   1.454       .  A
C2290      C2293   1.454       .  S
C2291      C2294   1.406       .  A
C2291      C2298   1.409       .  A
C2292      N2309   1.157       .  T
C2293      N2311   1.157       .  T
C2294      C2295   1.407       .  A
C2294      C2299   1.455       .  S
C2295      C2296   1.421       .  A
C2295      C2301   1.446       .  S
C2296      C2297   1.419       .  A
C2297      C2298   1.411       .  A
C2297      C2300   1.448       .  S
C2298      C2302   1.452       .  S
C2299      N2306   1.157       .  T
C2300      N2307   1.157       .  T
C2301      N2305   1.156   1_565  T
C2302      N2308   1.157       .  T
C2303      N2312   1.157       .  T
C2304      N2310   1.155       .  T
C2313      C2314   1.399       .  A
C2313      C2318   1.418       .  A
C2313      C2331   1.459       .  S
C2314      C2319   1.499       .  S
C2314      C2315   1.399       .  A
C2315      C2316   1.410       .  A
C2315      C2320   1.454       .  S
C2316      C2317   1.449       .  A
C2316      C2332   1.454       .  S
C2317      C2318   1.445       .  A
C2318      C2321   1.438       .  S
C2319      C2322   1.413       .  A
C2319      C2326   1.413       .  A
C2320      N2337   1.157       .  T
C2321      N2339   1.157       .  T
C2322      C2323   1.406       .  A
C2322      C2327   1.451       .  S
C2323      C2324   1.409       .  A
C2323      C2329   1.450   1_565  S
C2324      C2325   1.412       .  A
C2325      C2326   1.412       .  A
C2325      C2328   1.451   1_455  S
C2326      C2330   1.450       .  S
C2327      N2334   1.157   1_565  T
C2328      N2335   1.157       .  T
C2329      N2333   1.157       .  T
C2330      N2336   1.157       .  T
C2331      N2340   1.157   1_455  T
C2332      N2338   1.158       .  T
C2341      C2342   1.403       .  A
C2341      C2346   1.409       .  A
C2341      C2359   1.453       .  S
C2342      C2347   1.493       .  S
C2342      C2343   1.405       .  A
C2343      C2344   1.410       .  A
C2343      C2348   1.454   1_545  S
C2344      C2345   1.431       .  A
C2344      C2360   1.451   1_545  S
C2345      C2346   1.431       .  A
C2346      C2349   1.452       .  S
C2347      C2350   1.405   1_455  A
C2347      C2354   1.402       .  A
C2348      N2365   1.157       .  T
C2349      N2367   1.158       .  T
C2350      C2351   1.410       .  A
C2350      C2355   1.455       .  S
C2351      C2352   1.427   1_655  A
C2351      C2357   1.444       .  S
C2352      C2353   1.431       .  A
C2353      C2354   1.411       .  A
C2353      C2356   1.452       .  S
C2354      C2358   1.451       .  S
C2355      N2362   1.157       .  T
C2356      N2363   1.157       .  T
C2357      N2361   1.156       .  T
C2358      N2364   1.157       .  T
C2359      N2368   1.157       .  T
C2360      N2366   1.158       .  T
C2369      C2370   1.395       .  A
C2369      C2374   1.415       .  A
C2369      C2387   1.453       .  S
C2370      C2375   1.492       .  S
C2370      C2371   1.396       .  A
C2371      C2372   1.412       .  A
C2371      C2376   1.461       .  S
C2372      C2373   1.451       .  A
C2372      C2388   1.442       .  S
C2373      C2374   1.453       .  A
C2374      C2377   1.451       .  S
C2375      C2378   1.406       .  A
C2375      C2382   1.409       .  A
C2376      N2393   1.157       .  T
C2377      N2395   1.157       .  T
C2378      C2379   1.408       .  A
C2378      C2383   1.451       .  S
C2379      C2380   1.418       .  A
C2379      C2385   1.449       .  S
C2380      C2381   1.418   1_565  A
C2381      C2382   1.409   1_545  A
C2381      C2384   1.450       .  S
C2382      C2386   1.452   1_565  S
C2383      N2390   1.157       .  T
C2384      N2391   1.158       .  T
C2385      N2389   1.157   1_455  T
C2386      N2392   1.157       .  T
C2387      N2396   1.157       .  T
C2388      N2394   1.156       .  T
C2397      C2398   1.397       .  A
C2397      C2402   1.414       .  A
C2397      C2415   1.454       .  S
C2398      C2403   1.489       .  S
C2398      C2399   1.398       .  A
C2399      C2400   1.410       .  A
C2399      C2404   1.458       .  S
C2400      C2401   1.449       .  A
C2400      C2416   1.451       .  S
C2401      C2402   1.451       .  A
C2402      C2405   1.453       .  S
C2403      C2406   1.405       .  A
C2403      C2410   1.405       .  A
C2404      N2421   1.157       .  T
C2405      N2423   1.157       .  T
C2406      C2407   1.404       .  A
C2406      C2411   1.450       .  S
C2407      C2408   1.423       .  A
C2407      C2413   1.454       .  S
C2408      C2409   1.427   1_565  A
C2409      C2410   1.410   1_545  A
C2409      C2412   1.447       .  S
C2410      C2414   1.454       .  S
C2411      N2418   1.157       .  T
C2412      N2419   1.158   1_655  T
C2413      N2417   1.157       .  T
C2414      N2420   1.157   1_565  T
C2415      N2424   1.157   1_565  T
C2416      N2422   1.158       .  T
C2425      C2426   1.410       .  A
C2425      C2430   1.403       .  A
C2425      C2443   1.451       .  S
C2426      C2431   1.498       .  S
C2426      C2427   1.423       .  A
C2427      C2428   1.405       .  A
C2427      C2432   1.452       .  S
C2428      C2429   1.403       .  A
C2428      C2444   1.449       .  S
C2429      C2430   1.409       .  A
C2430      C2433   1.451       .  S
C2431      C2434   1.406       .  A
C2431      C2438   1.395       .  A
C2432      N2449   1.157       .  T
C2433      N2451   1.157   1_455  T
C2434      C2435   1.412       .  A
C2434      C2439   1.455       .  S
C2435      C2436   1.446       .  A
C2435      C2441   1.454       .  S
C2436      C2437   1.452       .  A
C2437      C2438   1.411       .  A
C2437      C2440   1.451       .  S
C2438      C2442   1.456       .  S
C2439      N2446   1.158       .  T
C2440      N2447   1.158       .  T
C2441      N2445   1.157       .  T
C2442      N2448   1.157       .  T
C2443      N2452   1.157       .  T
C2444      N2450   1.156       .  T
C2453      C2454   1.402       .  A
C2453      C2458   1.414   1_545  A
C2453      C2471   1.457   1_545  S
C2454      C2459   1.518       .  S
C2454      C2455   1.408       .  A
C2455      C2456   1.428       .  A
C2455      C2460   1.449       .  S
C2456      C2457   1.443       .  A
C2456      C2472   1.450       .  S
C2457      C2458   1.448   1_545  A
C2458      C2461   1.450       .  S
C2459      C2462   1.404       .  A
C2459      C2466   1.411       .  A
C2460      N2477   1.156       .  T
C2461      N2479   1.157       .  T
C2462      C2463   1.415       .  A
C2462      C2467   1.454       .  S
C2463      C2464   1.438       .  A
C2463      C2469   1.446       .  S
C2464      C2465   1.437       .  A
C2465      C2466   1.421       .  A
C2465      C2468   1.451       .  S
C2466      C2470   1.451       .  S
C2467      N2474   1.157       .  T
C2468      N2475   1.158       .  T
C2469      N2473   1.158       .  T
C2470      N2476   1.157       .  T
C2471      N2480   1.157       .  T
C2472      N2478   1.158       .  T
C2481      C2482   1.397       .  A
C2481      C2486   1.421       .  A
C2481      C2499   1.452       .  S
C2482      C2487   1.507       .  S
C2482      C2483   1.399       .  A
C2483      C2484   1.415       .  A
C2483      C2488   1.460       .  S
C2484      C2485   1.453       .  A
C2484      C2500   1.448       .  S
C2485      C2486   1.455       .  A
C2486      C2489   1.450       .  S
C2487      C2490   1.401       .  A
C2487      C2494   1.406       .  A
C2488      N2505   1.157       .  T
C2489      N2507   1.158       .  T
C2490      C2491   1.411       .  A
C2490      C2495   1.453       .  S
C2491      C2492   1.437       .  A
C2491      C2497   1.448       .  S
C2492      C2493   1.433       .  A
C2493      C2494   1.415       .  A
C2493      C2496   1.446       .  S
C2494      C2498   1.452       .  S
C2495      N2502   1.157       .  T
C2496      N2503   1.157       .  T
C2497      N2501   1.158       .  T
C2498      N2504   1.157       .  T
C2499      N2508   1.156       .  T
C2500      N2506   1.157       .  T
C2509      C2510   1.411       .  A
C2509      C2514   1.427       .  A
C2509      C2527   1.452       .  S
C2510      C2515   1.529       .  S
C2510      C2511   1.415       .  A
C2511      C2512   1.417       .  A
C2511      C2516   1.454       .  S
C2512      C2513   1.429       .  A
C2512      C2528   1.443       .  S
C2513      C2514   1.443       .  A
C2514      C2517   1.451       .  S
C2515      C2518   1.417       .  A
C2515      C2522   1.402       .  A
C2516      N2533   1.157       .  T
C2517      N2535   1.158       .  T
C2518      C2519   1.432       .  A
C2518      C2523   1.451       .  S
C2519      C2520   1.444       .  A
C2519      C2525   1.445       .  S
C2520      C2521   1.449       .  A
C2521      C2522   1.407       .  A
C2521      C2524   1.451       .  S
C2522      C2526   1.453       .  S
C2523      N2530   1.157       .  T
C2524      N2531   1.158       .  T
C2525      N2529   1.158       .  T
C2526      N2532   1.157       .  T
C2527      N2536   1.157       .  T
C2528      N2534   1.157       .  T
C2537      C2538   1.414       .  A
C2537      C2542   1.423       .  A
C2537      C2555   1.453       .  S
C2538      C2543   1.515       .  S
C2538      C2539   1.399       .  A
C2539      C2540   1.410       .  A
C2539      C2544   1.456       .  S
C2540      C2541   1.453       .  A
C2540      C2556   1.454       .  S
C2541      C2542   1.441       .  A
C2542      C2545   1.449       .  S
C2543      C2546   1.402       .  A
C2543      C2550   1.410       .  A
C2544      N2561   1.157       .  T
C2545      N2563   1.158       .  T
C2546      C2547   1.419       .  A
C2546      C2551   1.453       .  S
C2547      C2548   1.449       .  A
C2547      C2553   1.449       .  S
C2548      C2549   1.444       .  A
C2549      C2550   1.418       .  A
C2549      C2552   1.448       .  S
C2550      C2554   1.454       .  S
C2551      N2558   1.157       .  T
C2552      N2559   1.158       .  T
C2553      N2557   1.157       .  T
C2554      N2560   1.157       .  T
C2555      N2564   1.158       .  T
C2556      N2562   1.157       .  T
C2565      C2566   1.417       .  A
C2565      C2570   1.431       .  A
C2565      C2583   1.450   1_655  S
C2566      C2571   1.511       .  S
C2566      C2567   1.396       .  A
C2567      C2568   1.403       .  A
C2567      C2572   1.458       .  S
C2568      C2569   1.446       .  A
C2568      C2584   1.444       .  S
C2569      C2570   1.436       .  A
C2570      C2573   1.447       .  S
C2571      C2574   1.415       .  A
C2571      C2578   1.403       .  A
C2572      N2589   1.157       .  T
C2573      N2591   1.157   1_655  T
C2574      C2575   1.425       .  A
C2574      C2579   1.451       .  S
C2575      C2576   1.437       .  A
C2575      C2581   1.453       .  S
C2576      C2577   1.442       .  A
C2577      C2578   1.411       .  A
C2577      C2580   1.451       .  S
C2578      C2582   1.456       .  S
C2579      N2586   1.157       .  T
C2580      N2587   1.158       .  T
C2581      N2585   1.158       .  T
C2582      N2588   1.157       .  T
C2583      N2592   1.157       .  T
C2584      N2590   1.154       .  T
C2593      C2594   1.408       .  A
C2593      C2598   1.415       .  A
C2593      C2611   1.457       .  S
C2594      C2599   1.518       .  S
C2594      C2595   1.409       .  A
C2595      C2596   1.426       .  A
C2595      C2600   1.452       .  S
C2596      C2597   1.442       .  A
C2596      C2612   1.443       .  S
C2597      C2598   1.445       .  A
C2598      C2601   1.449       .  S
C2599      C2602   1.398       .  A
C2599      C2606   1.408       .  A
C2600      N2617   1.157       .  T
C2601      N2619   1.158       .  T
C2602      C2603   1.418       .  A
C2602      C2607   1.463       .  S
C2603      C2604   1.457       .  A
C2603      C2609   1.442       .  S
C2604      C2605   1.446       .  A
C2605      C2606   1.424       .  A
C2605      C2608   1.451       .  S
C2606      C2610   1.452       .  S
C2607      N2614   1.157       .  T
C2608      N2615   1.157       .  T
C2609      N2613   1.155       .  T
C2610      N2616   1.158       .  T
C2611      N2620   1.157       .  T
C2612      N2618   1.156       .  T
C2621      C2622   1.418       .  A
C2621      C2626   1.437       .  A
C2621      C2639   1.448       .  S
C2622      C2627   1.528       .  S
C2622      C2623   1.399       .  A
C2623      C2624   1.411       .  A
C2623      C2628   1.458   1_455  S
C2624      C2625   1.457       .  A
C2624      C2640   1.453   1_455  S
C2625      C2626   1.434       .  A
C2626      C2629   1.450       .  S
C2627      C2630   1.410   1_455  A
C2627      C2634   1.406       .  A
C2628      N2645   1.157       .  T
C2629      N2647   1.157       .  T
C2630      C2631   1.435       .  A
C2630      C2635   1.451       .  S
C2631      C2632   1.448       .  A
C2631      C2637   1.447       .  S
C2632      C2633   1.447       .  A
C2633      C2634   1.420   1_655  A
C2633      C2636   1.448       .  S
C2634      C2638   1.455       .  S
C2635      N2642   1.157       .  T
C2636      N2643   1.157       .  T
C2637      N2641   1.158       .  T
C2638      N2644   1.157       .  T
C2639      N2648   1.157       .  T
C2640      N2646   1.157       .  T
C2649      C2650   1.406       .  A
C2649      C2654   1.432       .  A
C2649      C2667   1.456   1_655  S
C2650      C2655   1.538       .  S
C2650      C2651   1.408       .  A
C2651      C2652   1.427       .  A
C2651      C2656   1.452       .  S
C2652      C2653   1.451       .  A
C2652      C2668   1.449       .  S
C2653      C2654   1.454       .  A
C2654      C2657   1.445   1_655  S
C2655      C2658   1.409       .  A
C2655      C2662   1.407       .  A
C2656      N2673   1.157       .  T
C2657      N2675   1.157       .  T
C2658      C2659   1.429       .  A
C2658      C2663   1.452       .  S
C2659      C2660   1.448       .  A
C2659      C2665   1.448       .  S
C2660      C2661   1.449       .  A
C2661      C2662   1.431       .  A
C2661      C2664   1.443       .  S
C2662      C2666   1.455       .  S
C2663      N2670   1.157       .  T
C2664      N2671   1.157       .  T
C2665      N2669   1.157       .  T
C2666      N2672   1.157       .  T
C2667      N2676   1.157       .  T
C2668      N2674   1.158       .  T
C2677      C2678   1.408       .  A
C2677      C2682   1.427   1_455  A
C2677      C2695   1.451       .  S
C2678      C2683   1.509       .  S
C2678      C2679   1.398       .  A
C2679      C2680   1.409       .  A
C2679      C2684   1.459       .  S
C2680      C2681   1.453   1_455  A
C2680      C2696   1.452       .  S
C2681      C2682   1.442       .  A
C2682      C2685   1.448       .  S
C2683      C2686   1.403       .  A
C2683      C2690   1.403       .  A
C2684      N2701   1.157       .  T
C2685      N2703   1.157       .  T
C2686      C2687   1.413       .  A
C2686      C2691   1.454       .  S
C2687      C2688   1.442       .  A
C2687      C2693   1.449       .  S
C2688      C2689   1.446       .  A
C2689      C2690   1.423       .  A
C2689      C2692   1.443       .  S
C2690      C2694   1.456       .  S
C2691      N2698   1.157       .  T
C2692      N2699   1.158       .  T
C2693      N2697   1.157       .  T
C2694      N2700   1.157       .  T
C2695      N2704   1.157       .  T
C2696      N2702   1.157       .  T
C2705      C2706   1.397   1_565  A
C2705      C2710   1.412   1_565  A
C2705      C2723   1.452       .  S
C2706      C2711   1.525   1_545  S
C2706      C2707   1.413       .  A
C2707      C2708   1.437       .  A
C2707      C2712   1.450       .  S
C2708      C2709   1.442       .  A
C2708      C2724   1.447       .  S
C2709      C2710   1.454       .  A
C2710      C2713   1.449   1_545  S
C2711      C2714   1.416       .  A
C2711      C2718   1.396   1_565  A
C2712      N2729   1.157       .  T
C2713      N2731   1.156       .  T
C2714      C2715   1.438       .  A
C2714      C2719   1.448       .  S
C2715      C2716   1.443       .  A
C2715      C2721   1.449       .  S
C2716      C2717   1.447       .  A
C2717      C2718   1.407   1_565  A
C2717      C2720   1.447   1_565  S
C2718      C2722   1.452       .  S
C2719      N2726   1.157       .  T
C2720      N2727   1.157       .  T
C2721      N2725   1.157       .  T
C2722      N2728   1.157       .  T
C2723      N2732   1.157       .  T
C2724      N2730   1.157       .  T
C2733      C2734   1.410       .  A
C2733      C2738   1.431       .  A
C2733      C2751   1.451       .  S
C2734      C2739   1.536       .  S
C2734      C2735   1.408       .  A
C2735      C2736   1.423       .  A
C2735      C2740   1.454       .  S
C2736      C2737   1.446       .  A
C2736      C2752   1.449       .  S
C2737      C2738   1.453       .  A
C2738      C2741   1.455       .  S
C2739      C2742   1.408       .  A
C2739      C2746   1.406       .  A
C2740      N2757   1.157       .  T
C2741      N2759   1.158       .  T
C2742      C2743   1.429       .  A
C2742      C2747   1.455       .  S
C2743      C2744   1.448       .  A
C2743      C2749   1.444       .  S
C2744      C2745   1.453       .  A
C2745      C2746   1.429       .  A
C2745      C2748   1.451       .  S
C2746      C2750   1.452       .  S
C2747      N2754   1.157   1_545  T
C2748      N2755   1.158       .  T
C2749      N2753   1.157   1_545  T
C2750      N2756   1.157       .  T
C2751      N2760   1.157       .  T
C2752      N2758   1.158       .  T
C2761      C2762   1.409       .  A
C2761      C2766   1.438       .  A
C2761      C2779   1.454       .  S
C2762      C2767   1.547       .  S
C2762      C2763   1.407       .  A
C2763      C2764   1.431       .  A
C2763      C2768   1.455       .  S
C2764      C2765   1.454       .  A
C2764      C2780   1.448       .  S
C2765      C2766   1.451       .  A
C2766      C2769   1.441       .  S
C2767      C2770   1.411       .  A
C2767      C2774   1.407       .  A
C2768      N2785   1.157       .  T
C2769      N2787   1.156       .  T
C2770      C2771   1.435       .  A
C2770      C2775   1.452       .  S
C2771      C2772   1.448       .  A
C2771      C2777   1.448       .  S
C2772      C2773   1.456       .  A
C2773      C2774   1.434       .  A
C2773      C2776   1.445       .  S
C2774      C2778   1.456       .  S
C2775      N2782   1.157       .  T
C2776      N2783   1.157       .  T
C2777      N2781   1.157       .  T
C2778      N2784   1.157       .  T
C2779      N2788   1.157       .  T
C2780      N2786   1.157       .  T
C2789      C2790   1.411       .  A
C2789      C2794   1.420       .  A
C2789      C2807   1.451       .  S
C2790      C2795   1.533       .  S
C2790      C2791   1.412       .  A
C2791      C2792   1.418       .  A
C2791      C2796   1.455       .  S
C2792      C2793   1.449       .  A
C2792      C2808   1.446       .  S
C2793      C2794   1.447       .  A
C2794      C2797   1.450       .  S
C2795      C2798   1.411   1_565  A
C2795      C2802   1.412   1_565  A
C2796      N2813   1.157       .  T
C2797      N2815   1.157       .  T
C2798      C2799   1.424       .  A
C2798      C2803   1.454   1_545  S
C2799      C2800   1.449       .  A
C2799      C2805   1.450       .  S
C2800      C2801   1.445       .  A
C2801      C2802   1.426       .  A
C2801      C2804   1.447       .  S
C2802      C2806   1.455   1_545  S
C2803      N2810   1.158       .  T
C2804      N2811   1.158       .  T
C2805      N2809   1.157       .  T
C2806      N2812   1.157       .  T
C2807      N2816   1.157   1_565  T
C2808      N2814   1.158       .  T
C2817      C2818   1.408       .  A
C2817      C2822   1.427       .  A
C2817      C2835   1.454       .  S
C2818      C2823   1.523       .  S
C2818      C2819   1.401       .  A
C2819      C2820   1.419       .  A
C2819      C2824   1.454       .  S
C2820      C2821   1.455       .  A
C2820      C2836   1.454       .  S
C2821      C2822   1.445       .  A
C2822      C2825   1.445       .  S
C2823      C2826   1.398       .  A
C2823      C2830   1.410       .  A
C2824      N2841   1.157       .  T
C2825      N2843   1.158       .  T
C2826      C2827   1.413       .  A
C2826      C2831   1.455       .  S
C2827      C2828   1.454       .  A
C2827      C2833   1.451       .  S
C2828      C2829   1.445       .  A
C2829      C2830   1.431       .  A
C2829      C2832   1.446       .  S
C2830      C2834   1.451       .  S
C2831      N2838   1.157       .  T
C2832      N2839   1.158       .  T
C2833      N2837   1.158       .  T
C2834      N2840   1.156       .  T
C2835      N2844   1.157       .  T
C2836      N2842   1.158       .  T
C2845      C2846   1.405       .  A
C2845      C2850   1.426       .  A
C2845      C2863   1.454       .  S
C2846      C2851   1.520       .  S
C2846      C2847   1.404       .  A
C2847      C2848   1.420       .  A
C2847      C2852   1.456       .  S
C2848      C2849   1.445       .  A
C2848      C2864   1.448       .  S
C2849      C2850   1.454       .  A
C2850      C2853   1.454       .  S
C2851      C2854   1.405       .  A
C2851      C2858   1.399       .  A
C2852      N2869   1.157       .  T
C2853      N2871   1.158       .  T
C2854      C2855   1.427       .  A
C2854      C2859   1.453       .  S
C2855      C2856   1.444       .  A
C2855      C2861   1.450       .  S
C2856      C2857   1.462       .  A
C2857      C2858   1.419       .  A
C2857      C2860   1.454       .  S
C2858      C2862   1.458       .  S
C2859      N2866   1.157       .  T
C2860      N2867   1.158       .  T
C2861      N2865   1.157       .  T
C2862      N2868   1.157       .  T
C2863      N2872   1.157       .  T
C2864      N2870   1.157       .  T
C2873      C2874   1.397       .  A
C2873      C2878   1.416       .  A
C2873      C2891   1.454       .  S
C2874      C2879   1.505       .  S
C2874      C2875   1.400       .  A
C2875      C2876   1.419       .  A
C2875      C2880   1.459       .  S
C2876      C2877   1.452       .  A
C2876      C2892   1.447       .  S
C2877      C2878   1.455       .  A
C2878      C2881   1.454       .  S
C2879      C2882   1.399       .  A
C2879      C2886   1.406       .  A
C2880      N2897   1.157       .  T
C2881      N2899   1.158       .  T
C2882      C2883   1.408       .  A
C2882      C2887   1.458       .  S
C2883      C2884   1.445       .  A
C2883      C2889   1.448       .  S
C2884      C2885   1.445       .  A
C2885      C2886   1.423       .  A
C2885      C2888   1.450       .  S
C2886      C2890   1.453       .  S
C2887      N2894   1.157       .  T
C2888      N2895   1.158       .  T
C2889      N2893   1.157       .  T
C2890      N2896   1.157       .  T
C2891      N2900   1.157       .  T
C2892      N2898   1.158       .  T
C2901      C2902   1.413   1_565  A
C2901      C2906   1.428       .  A
C2901      C2919   1.451       .  S
C2902      C2907   1.504       .  S
C2902      C2903   1.399       .  A
C2903      C2904   1.394       .  A
C2903      C2908   1.454       .  S
C2904      C2905   1.439   1_545  A
C2904      C2920   1.446       .  S
C2905      C2906   1.437       .  A
C2906      C2909   1.444       .  S
C2907      C2910   1.414       .  A
C2907      C2914   1.398       .  A
C2908      N2925   1.157       .  T
C2909      N2927   1.157       .  T
C2910      C2911   1.422       .  A
C2910      C2915   1.452       .  S
C2911      C2912   1.436       .  A
C2911      C2917   1.449       .  S
C2912      C2913   1.444       .  A
C2913      C2914   1.402       .  A
C2913      C2916   1.449       .  S
C2914      C2918   1.454   1_545  S
C2915      N2922   1.157       .  T
C2916      N2923   1.157       .  T
C2917      N2921   1.157       .  T
C2918      N2924   1.157       .  T
C2919      N2928   1.157       .  T
C2920      N2926   1.156       .  T
C2929      C2930   1.407       .  A
C2929      C2934   1.421       .  A
C2929      C2947   1.452       .  S
C2930      C2935   1.522       .  S
C2930      C2931   1.408       .  A
C2931      C2932   1.425       .  A
C2931      C2936   1.452       .  S
C2932      C2933   1.441       .  A
C2932      C2948   1.451       .  S
C2933      C2934   1.439       .  A
C2934      C2937   1.447       .  S
C2935      C2938   1.400       .  A
C2935      C2942   1.405       .  A
C2936      N2953   1.157       .  T
C2937      N2955   1.157       .  T
C2938      C2939   1.424       .  A
C2938      C2943   1.458       .  S
C2939      C2940   1.458       .  A
C2939      C2945   1.449       .  S
C2940      C2941   1.446       .  A
C2941      C2942   1.426       .  A
C2941      C2944   1.450       .  S
C2942      C2946   1.452       .  S
C2943      N2950   1.157       .  T
C2944      N2951   1.157       .  T
C2945      N2949   1.158       .  T
C2946      N2952   1.157       .  T
C2947      N2956   1.157       .  T
C2948      N2954   1.158       .  T
C2957      C2958   1.404       .  A
C2957      C2962   1.432       .  A
C2957      C2975   1.456       .  S
C2958      C2963   1.541       .  S
C2958      C2959   1.409       .  A
C2959      C2960   1.431       .  A
C2959      C2964   1.452       .  S
C2960      C2961   1.451       .  A
C2960      C2976   1.448       .  S
C2961      C2962   1.456       .  A
C2962      C2965   1.445       .  S
C2963      C2966   1.406       .  A
C2963      C2970   1.408       .  A
C2964      N2981   1.157       .  T
C2965      N2983   1.157       .  T
C2966      C2967   1.430       .  A
C2966      C2971   1.455       .  S
C2967      C2968   1.460       .  A
C2967      C2973   1.451       .  S
C2968      C2969   1.449       .  A
C2969      C2970   1.433       .  A
C2969      C2972   1.448       .  S
C2970      C2974   1.453       .  S
C2971      N2978   1.157       .  T
C2972      N2979   1.157       .  T
C2973      N2977   1.158       .  T
C2974      N2980   1.157       .  T
C2975      N2984   1.157       .  T
C2976      N2982   1.158       .  T
C2985      C2986   1.412       .  A
C2985      C2990   1.425       .  A
C2985      C3003   1.450       .  S
C2986      C2991   1.518       .  S
C2986      C2987   1.399       .  A
C2987      C2988   1.415       .  A
C2987      C2992   1.457       .  S
C2988      C2989   1.453       .  A
C2988      C3004   1.450       .  S
C2989      C2990   1.442       .  A
C2990      C2993   1.450       .  S
C2991      C2994   1.411   1_565  A
C2991      C2998   1.402       .  A
C2992      N3009   1.157   1_565  T
C2993      N3011   1.158       .  T
C2994      C2995   1.424       .  A
C2994      C2999   1.452       .  S
C2995      C2996   1.438       .  A
C2995      C3001   1.444       .  S
C2996      C2997   1.451       .  A
C2997      C2998   1.420   1_545  A
C2997      C3000   1.449       .  S
C2998      C3002   1.454       .  S
C2999      N3006   1.157       .  T
C3000      N3007   1.158   1_545  T
C3001      N3005   1.157       .  T
C3002      N3008   1.157       .  T
C3003      N3012   1.157       .  T
C3004      N3010   1.156       .  T
C3013      C3014   1.411   1_655  A
C3013      C3018   1.422       .  A
C3013      C3031   1.456       .  S
C3014      C3019   1.524       .  S
C3014      C3015   1.403       .  A
C3015      C3016   1.419       .  A
C3015      C3020   1.452       .  S
C3016      C3017   1.453   1_455  A
C3016      C3032   1.452       .  S
C3017      C3018   1.447       .  A
C3018      C3021   1.446       .  S
C3019      C3022   1.401       .  A
C3019      C3026   1.418       .  A
C3020      N3037   1.157       .  T
C3021      N3039   1.158       .  T
C3022      C3023   1.396       .  A
C3022      C3027   1.451       .  S
C3023      C3024   1.436       .  A
C3023      C3029   1.446       .  S
C3024      C3025   1.447       .  A
C3025      C3026   1.436       .  A
C3025      C3028   1.447       .  S
C3026      C3030   1.449       .  S
C3027      N3034   1.157   1_455  T
C3028      N3035   1.157       .  T
C3029      N3033   1.157   1_455  T
C3030      N3036   1.157       .  T
C3031      N3040   1.157       .  T
C3032      N3038   1.157       .  T
C3041      C3042   1.405       .  A
C3041      C3046   1.426       .  A
C3041      C3059   1.454       .  S
C3042      C3047   1.531       .  S
C3042      C3043   1.406       .  A
C3043      C3044   1.430       .  A
C3043      C3048   1.453       .  S
C3044      C3045   1.450       .  A
C3044      C3060   1.448       .  S
C3045      C3046   1.453       .  A
C3046      C3049   1.452       .  S
C3047      C3050   1.406       .  A
C3047      C3054   1.403       .  A
C3048      N3065   1.157       .  T
C3049      N3067   1.158       .  T
C3050      C3051   1.429       .  A
C3050      C3055   1.453       .  S
C3051      C3052   1.453       .  A
C3051      C3057   1.448       .  S
C3052      C3053   1.449       .  A
C3053      C3054   1.425       .  A
C3053      C3056   1.447       .  S
C3054      C3058   1.454       .  S
C3055      N3062   1.157       .  T
C3056      N3063   1.157       .  T
C3057      N3061   1.158       .  T
C3058      N3064   1.157       .  T
C3059      N3068   1.157       .  T
C3060      N3066   1.157       .  T
C3069      C3070   1.406       .  A
C3069      C3074   1.425       .  A
C3069      C3087   1.456       .  S
C3070      C3075   1.518       .  S
C3070      C3071   1.401       .  A
C3071      C3072   1.416   1_455  A
C3071      C3076   1.454       .  S
C3072      C3073   1.452       .  A
C3072      C3088   1.451       .  S
C3073      C3074   1.447   1_655  A
C3074      C3077   1.443   1_455  S
C3075      C3078   1.402       .  A
C3075      C3082   1.400       .  A
C3076      N3093   1.157       .  T
C3077      N3095   1.157       .  T
C3078      C3079   1.423       .  A
C3078      C3083   1.454       .  S
C3079      C3080   1.449       .  A
C3079      C3085   1.449       .  S
C3080      C3081   1.459       .  A
C3081      C3082   1.422       .  A
C3081      C3084   1.448       .  S
C3082      C3086   1.458       .  S
C3083      N3090   1.157       .  T
C3084      N3091   1.157       .  T
C3085      N3089   1.157       .  T
C3086      N3092   1.157       .  T
C3087      N3096   1.157       .  T
C3088      N3094   1.157       .  T
C3097      C3098   1.414       .  A
C3097      C3102   1.431       .  A
C3097      C3115   1.451       .  S
C3098      C3103   1.523       .  S
C3098      C3099   1.402       .  A
C3099      C3100   1.414       .  A
C3099      C3104   1.456       .  S
C3100      C3101   1.449       .  A
C3100      C3116   1.451       .  S
C3101      C3102   1.436       .  A
C3102      C3105   1.447       .  S
C3103      C3106   1.417       .  A
C3103      C3110   1.403       .  A
C3104      N3121   1.157       .  T
C3105      N3123   1.157       .  T
C3106      C3107   1.434       .  A
C3106      C3111   1.450       .  S
C3107      C3108   1.435       .  A
C3107      C3113   1.448       .  S
C3108      C3109   1.447       .  A
C3109      C3110   1.408       .  A
C3109      C3112   1.451       .  S
C3110      C3114   1.457       .  S
C3111      N3118   1.157       .  T
C3112      N3119   1.156       .  T
C3113      N3117   1.157       .  T
C3114      N3120   1.157       .  T
C3115      N3124   1.157       .  T
C3116      N3122   1.157       .  T
C3125      C3126   1.404       .  A
C3125      C3130   1.428       .  A
C3125      C3143   1.456       .  S
C3126      C3131   1.521       .  S
C3126      C3127   1.400       .  A
C3127      C3128   1.421       .  A
C3127      C3132   1.455       .  S
C3128      C3129   1.452       .  A
C3128      C3144   1.449       .  S
C3129      C3130   1.452       .  A
C3130      C3133   1.447       .  S
C3131      C3134   1.402       .  A
C3131      C3138   1.403       .  A
C3132      N3149   1.157       .  T
C3133      N3151   1.158       .  T
C3134      C3135   1.423       .  A
C3134      C3139   1.455       .  S
C3135      C3136   1.448       .  A
C3135      C3141   1.448       .  S
C3136      C3137   1.456       .  A
C3137      C3138   1.423       .  A
C3137      C3140   1.453       .  S
C3138      C3142   1.456       .  S
C3139      N3146   1.157       .  T
C3140      N3147   1.158       .  T
C3141      N3145   1.157       .  T
C3142      N3148   1.157       .  T
C3143      N3152   1.157       .  T
C3144      N3150   1.157       .  T
C3153      C3154   1.408       .  A
C3153      C3158   1.418       .  A
C3153      C3171   1.452       .  S
C3154      C3159   1.539       .  S
C3154      C3155   1.413       .  A
C3155      C3156   1.437       .  A
C3155      C3160   1.453       .  S
C3156      C3157   1.449       .  A
C3156      C3172   1.444       .  S
C3157      C3158   1.445       .  A
C3158      C3161   1.448       .  S
C3159      C3162   1.415       .  A
C3159      C3166   1.409       .  A
C3160      N3177   1.157       .  T
C3161      N3179   1.157       .  T
C3162      C3163   1.432       .  A
C3162      C3167   1.453       .  S
C3163      C3164   1.444       .  A
C3163      C3169   1.451       .  S
C3164      C3165   1.451       .  A
C3165      C3166   1.423       .  A
C3165      C3168   1.453       .  S
C3166      C3170   1.453       .  S
C3167      N3174   1.157       .  T
C3168      N3175   1.158       .  T
C3169      N3173   1.157       .  T
C3170      N3176   1.157       .  T
C3171      N3180   1.157       .  T
C3172      N3178   1.157       .  T
C3181      C3182   1.408       .  A
C3181      C3186   1.426       .  A
C3181      C3199   1.452       .  S
C3182      C3187   1.518       .  S
C3182      C3183   1.400       .  A
C3183      C3184   1.420       .  A
C3183      C3188   1.456       .  S
C3184      C3185   1.451       .  A
C3184      C3200   1.447       .  S
C3185      C3186   1.441       .  A
C3186      C3189   1.440       .  S
C3187      C3190   1.410       .  A
C3187      C3194   1.399       .  A
C3188      N3205   1.157       .  T
C3189      N3207   1.155       .  T
C3190      C3191   1.426       .  A
C3190      C3195   1.452       .  S
C3191      C3192   1.444       .  A
C3191      C3197   1.450       .  S
C3192      C3193   1.452       .  A
C3193      C3194   1.417       .  A
C3193      C3196   1.450       .  S
C3194      C3198   1.456       .  S
C3195      N3202   1.157       .  T
C3196      N3203   1.157       .  T
C3197      N3201   1.158       .  T
C3198      N3204   1.157       .  T
C3199      N3208   1.157       .  T
C3200      N3206   1.157       .  T
C3209      C3210   1.407       .  A
C3209      C3214   1.432       .  A
C3209      C3227   1.454       .  S
C3210      C3215   1.528       .  S
C3210      C3211   1.403       .  A
C3211      C3212   1.420       .  A
C3211      C3216   1.455       .  S
C3212      C3213   1.452       .  A
C3212      C3228   1.452       .  S
C3213      C3214   1.451       .  A
C3214      C3217   1.447       .  S
C3215      C3218   1.401       .  A
C3215      C3222   1.407       .  A
C3216      N3233   1.157       .  T
C3217      N3235   1.158       .  T
C3218      C3219   1.423   1_655  A
C3218      C3223   1.457   1_655  S
C3219      C3220   1.452   1_455  A
C3219      C3225   1.446       .  S
C3220      C3221   1.448       .  A
C3221      C3222   1.428       .  A
C3221      C3224   1.450       .  S
C3222      C3226   1.452       .  S
C3223      N3230   1.157       .  T
C3224      N3231   1.158       .  T
C3225      N3229   1.157       .  T
C3226      N3232   1.157       .  T
C3227      N3236   1.157       .  T
C3228      N3234   1.157       .  T
C3237      C3238   1.400       .  A
C3237      C3242   1.415       .  A
C3237      C3255   1.457       .  S
C3238      C3243   1.509       .  S
C3238      C3239   1.401       .  A
C3239      C3240   1.422       .  A
C3239      C3244   1.456       .  S
C3240      C3241   1.452       .  A
C3240      C3256   1.447       .  S
C3241      C3242   1.452       .  A
C3242      C3245   1.452       .  S
C3243      C3246   1.402       .  A
C3243      C3250   1.402       .  A
C3244      N3261   1.157       .  T
C3245      N3263   1.157       .  T
C3246      C3247   1.414       .  A
C3246      C3251   1.455       .  S
C3247      C3248   1.444       .  A
C3247      C3253   1.445       .  S
C3248      C3249   1.452       .  A
C3249      C3250   1.417       .  A
C3249      C3252   1.453       .  S
C3250      C3254   1.454       .  S
C3251      N3258   1.157       .  T
C3252      N3259   1.158       .  T
C3253      N3257   1.157       .  T
C3254      N3260   1.157       .  T
C3255      N3264   1.157       .  T
C3256      N3262   1.158       .  T
C3265      C3266   1.412       .  A
C3265      C3270   1.425       .  A
C3265      C3283   1.452       .  S
C3266      C3271   1.533       .  S
C3266      C3267   1.408       .  A
C3267      C3268   1.427       .  A
C3267      C3272   1.453       .  S
C3268      C3269   1.447       .  A
C3268      C3284   1.448       .  S
C3269      C3270   1.442       .  A
C3270      C3273   1.450       .  S
C3271      C3274   1.411       .  A
C3271      C3278   1.405       .  A
C3272      N3289   1.157       .  T
C3273      N3291   1.158       .  T
C3274      C3275   1.432       .  A
C3274      C3279   1.452       .  S
C3275      C3276   1.449       .  A
C3275      C3281   1.450       .  S
C3276      C3277   1.450       .  A
C3277      C3278   1.424       .  A
C3277      C3280   1.449       .  S
C3278      C3282   1.455       .  S
C3279      N3286   1.157       .  T
C3280      N3287   1.157       .  T
C3281      N3285   1.158       .  T
C3282      N3288   1.157       .  T
C3283      N3292   1.157       .  T
C3284      N3290   1.157       .  T
C3293      C3294   1.407       .  A
C3293      C3298   1.423       .  A
C3293      C3311   1.454       .  S
C3294      C3299   1.523       .  S
C3294      C3295   1.416       .  A
C3295      C3296   1.424       .  A
C3295      C3300   1.452       .  S
C3296      C3297   1.422       .  A
C3296      C3312   1.448       .  S
C3297      C3298   1.445       .  A
C3298      C3301   1.446       .  S
C3299      C3302   1.424       .  A
C3299      C3306   1.403       .  A
C3300      N3317   1.157       .  T
C3301      N3319   1.156       .  T
C3302      C3303   1.433       .  A
C3302      C3307   1.447       .  S
C3303      C3304   1.425       .  A
C3303      C3309   1.451       .  S
C3304      C3305   1.449       .  A
C3305      C3306   1.407       .  A
C3305      C3308   1.453       .  S
C3306      C3310   1.457       .  S
C3307      N3314   1.157       .  T
C3308      N3315   1.157       .  T
C3309      N3313   1.157       .  T
C3310      N3316   1.157       .  T
C3311      N3320   1.157       .  T
C3312      N3318   1.158       .  T
C3321      C3322   1.411       .  A
C3321      C3326   1.433       .  A
C3321      C3339   1.450       .  S
C3322      C3327   1.516       .  S
C3322      C3323   1.402       .  A
C3323      C3324   1.406       .  A
C3323      C3328   1.458       .  S
C3324      C3325   1.443       .  A
C3324      C3340   1.448       .  S
C3325      C3326   1.443       .  A
C3326      C3329   1.446       .  S
C3327      C3330   1.402       .  A
C3327      C3334   1.406       .  A
C3328      N3345   1.157       .  T
C3329      N3347   1.157       .  T
C3330      C3331   1.414       .  A
C3330      C3335   1.458       .  S
C3331      C3332   1.444       .  A
C3331      C3337   1.442       .  S
C3332      C3333   1.445       .  A
C3333      C3334   1.424       .  A
C3333      C3336   1.449       .  S
C3334      C3338   1.450       .  S
C3335      N3342   1.157       .  T
C3336      N3343   1.157       .  T
C3337      N3341   1.158       .  T
C3338      N3344   1.157       .  T
C3339      N3348   1.157       .  T
C3340      N3346   1.157       .  T
C3349      C3350   1.403       .  A
C3349      C3354   1.397       .  A
C3349      C3367   1.452       .  S
C3350      C3355   1.526       .  S
C3350      C3351   1.424       .  A
C3351      C3352   1.440       .  A
C3351      C3356   1.447   1_545  S
C3352      C3353   1.433       .  A
C3352      C3368   1.448       .  S
C3353      C3354   1.436       .  A
C3354      C3357   1.448       .  S
C3355      C3358   1.405       .  A
C3355      C3362   1.412       .  A
C3356      N3373   1.157       .  T
C3357      N3375   1.156       .  T
C3358      C3359   1.428       .  A
C3358      C3363   1.453       .  S
C3359      C3360   1.447       .  A
C3359      C3365   1.443       .  S
C3360      C3361   1.440       .  A
C3361      C3362   1.421       .  A
C3361      C3364   1.448       .  S
C3362      C3366   1.454       .  S
C3363      N3370   1.157       .  T
C3364      N3371   1.157       .  T
C3365      N3369   1.158   1_545  T
C3366      N3372   1.157       .  T
C3367      N3376   1.157       .  T
C3368      N3374   1.157       .  T
C3377      C3378   1.399       .  A
C3377      C3382   1.412       .  A
C3377      C3395   1.458       .  S
C3378      C3383   1.510       .  S
C3378      C3379   1.406       .  A
C3379      C3380   1.429       .  A
C3379      C3384   1.452       .  S
C3380      C3381   1.444       .  A
C3380      C3396   1.445       .  S
C3381      C3382   1.450       .  A
C3382      C3385   1.450       .  S
C3383      C3386   1.412       .  A
C3383      C3390   1.403       .  A
C3384      N3401   1.157       .  T
C3385      N3403   1.157       .  T
C3386      C3387   1.425       .  A
C3386      C3391   1.449       .  S
C3387      C3388   1.440       .  A
C3387      C3393   1.453       .  S
C3388      C3389   1.436       .  A
C3389      C3390   1.407       .  A
C3389      C3392   1.448       .  S
C3390      C3394   1.453       .  S
C3391      N3398   1.157       .  T
C3392      N3399   1.157       .  T
C3393      N3397   1.158       .  T
C3394      N3400   1.157       .  T
C3395      N3404   1.157       .  T
C3396      N3402   1.157       .  T
C3405      C3406   1.407       .  A
C3405      C3410   1.423       .  A
C3405      C3423   1.450   1_556  S
C3406      C3411   1.518   1_656  S
C3406      C3407   1.403   1_655  A
C3407      C3408   1.418   1_455  A
C3407      C3412   1.454       .  S
C3408      C3409   1.440       .  A
C3408      C3424   1.445   1_655  S
C3409      C3410   1.443       .  A
C3410      C3413   1.451       .  S
C3411      C3414   1.398       .  A
C3411      C3418   1.406       .  A
C3412      N3429   1.157       .  T
C3413      N3431   1.158       .  T
C3414      C3415   1.419       .  A
C3414      C3419   1.453       .  S
C3415      C3416   1.457       .  A
C3415      C3421   1.455       .  S
C3416      C3417   1.449       .  A
C3417      C3418   1.428       .  A
C3417      C3420   1.446       .  S
C3418      C3422   1.455       .  S
C3419      N3426   1.157   1_554  T
C3420      N3427   1.158       .  T
C3421      N3425   1.158       .  T
C3422      N3428   1.157       .  T
C3423      N3432   1.157       .  T
C3424      N3430   1.158       .  T
C3433      C3434   1.405       .  A
C3433      C3438   1.424       .  A
C3433      C3451   1.454       .  S
C3434      C3439   1.524       .  S
C3434      C3435   1.407       .  A
C3435      C3436   1.424       .  A
C3435      C3440   1.455       .  S
C3436      C3437   1.448       .  A
C3436      C3452   1.449       .  S
C3437      C3438   1.452       .  A
C3438      C3441   1.452       .  S
C3439      C3442   1.407       .  A
C3439      C3446   1.408       .  A
C3440      N3457   1.157       .  T
C3441      N3459   1.158       .  T
C3442      C3443   1.421       .  A
C3442      C3447   1.454       .  S
C3443      C3444   1.445       .  A
C3443      C3449   1.449       .  S
C3444      C3445   1.443       .  A
C3445      C3446   1.422       .  A
C3445      C3448   1.448       .  S
C3446      C3450   1.453       .  S
C3447      N3454   1.157       .  T
C3448      N3455   1.157       .  T
C3449      N3453   1.158       .  T
C3450      N3456   1.157       .  T
C3451      N3460   1.157       .  T
C3452      N3458   1.157       .  T
C3461      C3462   1.403       .  A
C3461      C3466   1.414       .  A
C3461      C3479   1.457       .  S
C3462      C3467   1.518       .  S
C3462      C3463   1.410       .  A
C3463      C3464   1.429       .  A
C3463      C3468   1.451       .  S
C3464      C3465   1.441       .  A
C3464      C3480   1.447       .  S
C3465      C3466   1.449       .  A
C3466      C3469   1.449       .  S
C3467      C3470   1.409   1_455  A
C3467      C3474   1.409       .  A
C3468      N3485   1.157       .  T
C3469      N3487   1.156       .  T
C3470      C3471   1.413       .  A
C3470      C3475   1.451       .  S
C3471      C3472   1.431       .  A
C3471      C3477   1.450       .  S
C3472      C3473   1.439       .  A
C3473      C3474   1.424   1_655  A
C3473      C3476   1.449       .  S
C3474      C3478   1.453       .  S
C3475      N3482   1.157       .  T
C3476      N3483   1.158   1_655  T
C3477      N3481   1.158       .  T
C3478      N3484   1.157       .  T
C3479      N3488   1.157   1_455  T
C3480      N3486   1.158       .  T
C3489      C3490   1.410       .  A
C3489      C3494   1.428       .  A
C3489      C3507   1.450       .  S
C3490      C3495   1.515   1_546  S
C3490      C3491   1.409       .  A
C3491      C3492   1.409       .  A
C3491      C3496   1.453   1_545  S
C3492      C3493   1.427       .  A
C3492      C3508   1.446       .  S
C3493      C3494   1.441       .  A
C3494      C3497   1.451       .  S
C3495      C3498   1.418       .  A
C3495      C3502   1.399   1_565  A
C3496      N3513   1.157       .  T
C3497      N3515   1.158       .  T
C3498      C3499   1.438       .  A
C3498      C3503   1.446   1_554  S
C3499      C3500   1.441       .  A
C3499      C3505   1.451       .  S
C3500      C3501   1.439       .  A
C3501      C3502   1.393   1_565  A
C3501      C3504   1.452       .  S
C3502      C3506   1.453       .  S
C3503      N3510   1.157       .  T
C3504      N3511   1.158       .  T
C3505      N3509   1.157       .  T
C3506      N3512   1.157       .  T
C3507      N3516   1.157       .  T
C3508      N3514   1.158       .  T
C3517      C3518   1.411       .  A
C3517      C3522   1.431       .  A
C3517      C3535   1.452       .  S
C3518      C3523   1.536       .  S
C3518      C3519   1.409       .  A
C3519      C3520   1.422       .  A
C3519      C3524   1.452       .  S
C3520      C3521   1.445       .  A
C3520      C3536   1.451       .  S
C3521      C3522   1.451       .  A
C3522      C3525   1.454       .  S
C3523      C3526   1.408       .  A
C3523      C3530   1.405       .  A
C3524      N3541   1.157       .  T
C3525      N3543   1.158   1_545  T
C3526      C3527   1.428       .  A
C3526      C3531   1.454       .  S
C3527      C3528   1.453       .  A
C3527      C3533   1.451       .  S
C3528      C3529   1.448       .  A
C3529      C3530   1.430       .  A
C3529      C3532   1.439       .  S
C3530      C3534   1.454       .  S
C3531      N3538   1.157       .  T
C3532      N3539   1.155       .  T
C3533      N3537   1.157       .  T
C3534      N3540   1.156       .  T
C3535      N3544   1.157       .  T
C3536      N3542   1.158       .  T
C3545      C3546   1.409       .  A
C3545      C3550   1.425       .  A
C3545      C3563   1.453       .  S
C3546      C3551   1.534       .  S
C3546      C3547   1.413       .  A
C3547      C3548   1.428       .  A
C3547      C3552   1.451       .  S
C3548      C3549   1.446       .  A
C3548      C3564   1.454       .  S
C3549      C3550   1.446       .  A
C3550      C3553   1.451       .  S
C3551      C3554   1.412       .  A
C3551      C3558   1.409       .  A
C3552      N3569   1.157       .  T
C3553      N3571   1.158       .  T
C3554      C3555   1.427       .  A
C3554      C3559   1.451       .  S
C3555      C3556   1.443       .  A
C3555      C3561   1.453       .  S
C3556      C3557   1.446       .  A
C3557      C3558   1.428       .  A
C3557      C3560   1.447       .  S
C3558      C3562   1.455       .  S
C3559      N3566   1.157       .  T
C3560      N3567   1.158       .  T
C3561      N3565   1.157       .  T
C3562      N3568   1.157       .  T
C3563      N3572   1.157       .  T
C3564      N3570   1.158       .  T
C3573      C3574   1.410       .  A
C3573      C3578   1.405   1_565  A
C3573      C3591   1.448       .  S
C3574      C3579   1.535       .  S
C3574      C3575   1.419   1_565  A
C3575      C3576   1.436       .  A
C3575      C3580   1.451       .  S
C3576      C3577   1.452       .  A
C3576      C3592   1.451       .  S
C3577      C3578   1.411       .  A
C3578      C3581   1.441       .  S
C3579      C3582   1.413       .  A
C3579      C3586   1.418       .  A
C3580      N3597   1.158       .  T
C3581      N3599   1.155       .  T
C3582      C3583   1.410       .  A
C3582      C3587   1.451       .  S
C3583      C3584   1.433       .  A
C3583      C3589   1.451       .  S
C3584      C3585   1.445       .  A
C3585      C3586   1.437       .  A
C3585      C3588   1.446       .  S
C3586      C3590   1.450       .  S
C3587      N3594   1.157       .  T
C3588      N3595   1.157       .  T
C3589      N3593   1.158       .  T
C3590      N3596   1.157       .  T
C3591      N3600   1.157       .  T
C3592      N3598   1.158       .  T
C3601      C3602   1.414       .  A
C3601      C3606   1.435       .  A
C3601      C3619   1.451       .  S
C3602      C3607   1.530   1_554  S
C3602      C3603   1.400       .  A
C3603      C3604   1.421       .  A
C3603      C3608   1.456   1_554  S
C3604      C3605   1.452       .  A
C3604      C3620   1.446       .  S
C3605      C3606   1.444       .  A
C3606      C3609   1.444       .  S
C3607      C3610   1.409       .  A
C3607      C3614   1.398       .  A
C3608      N3625   1.157       .  T
C3609      N3627   1.157       .  T
C3610      C3611   1.429       .  A
C3610      C3615   1.451   1_556  S
C3611      C3612   1.448       .  A
C3611      C3617   1.447       .  S
C3612      C3613   1.459       .  A
C3613      C3614   1.424       .  A
C3613      C3616   1.450       .  S
C3614      C3618   1.455       .  S
C3615      N3622   1.155       .  T
C3616      N3623   1.158       .  T
C3617      N3621   1.158       .  T
C3618      N3624   1.157       .  T
C3619      N3628   1.157       .  T
C3620      N3626   1.158       .  T
C3629      C3630   1.407       .  A
C3629      C3634   1.433       .  A
C3629      C3647   1.452       .  S
C3630      C3635   1.538       .  S
C3630      C3631   1.404       .  A
C3631      C3632   1.430       .  A
C3631      C3636   1.455       .  S
C3632      C3633   1.450       .  A
C3632      C3648   1.445       .  S
C3633      C3634   1.456       .  A
C3634      C3637   1.452       .  S
C3635      C3638   1.406       .  A
C3635      C3642   1.408       .  A
C3636      N3653   1.157       .  T
C3637      N3655   1.159       .  T
C3638      C3639   1.430       .  A
C3638      C3643   1.453       .  S
C3639      C3640   1.456       .  A
C3639      C3645   1.451       .  S
C3640      C3641   1.450       .  A
C3641      C3642   1.429       .  A
C3641      C3644   1.447       .  S
C3642      C3646   1.452       .  S
C3643      N3650   1.157       .  T
C3644      N3651   1.158       .  T
C3645      N3649   1.157       .  T
C3646      N3652   1.157       .  T
C3647      N3656   1.157       .  T
C3648      N3654   1.157       .  T
C3657      C3658   1.408       .  A
C3657      C3662   1.425       .  A
C3657      C3675   1.454       .  S
C3658      C3663   1.539       .  S
C3658      C3659   1.413       .  A
C3659      C3660   1.426       .  A
C3659      C3664   1.454       .  S
C3660      C3661   1.443       .  A
C3660      C3676   1.445       .  S
C3661      C3662   1.453       .  A
C3662      C3665   1.449       .  S
C3663      C3666   1.420       .  A
C3663      C3670   1.408       .  A
C3664      N3681   1.157       .  T
C3665      N3683   1.157       .  T
C3666      C3667   1.433       .  A
C3666      C3671   1.450       .  S
C3667      C3668   1.440       .  A
C3667      C3673   1.446       .  S
C3668      C3669   1.439       .  A
C3669      C3670   1.409       .  A
C3669      C3672   1.441       .  S
C3670      C3674   1.453       .  S
C3671      N3678   1.157       .  T
C3672      N3679   1.157       .  T
C3673      N3677   1.157       .  T
C3674      N3680   1.157       .  T
C3675      N3684   1.157       .  T
C3676      N3682   1.157       .  T
C3685      C3686   1.409       .  A
C3685      C3690   1.425       .  A
C3685      C3703   1.450       .  S
C3686      C3691   1.521   1_564  S
C3686      C3687   1.407       .  A
C3687      C3688   1.417       .  A
C3687      C3692   1.449       .  S
C3688      C3689   1.432       .  A
C3688      C3704   1.448       .  S
C3689      C3690   1.437       .  A
C3690      C3693   1.450       .  S
C3691      C3694   1.400   1_545  A
C3691      C3698   1.406       .  A
C3692      N3709   1.156   1_554  T
C3693      N3711   1.158       .  T
C3694      C3695   1.417   1_565  A
C3694      C3699   1.454       .  S
C3695      C3696   1.453       .  A
C3695      C3701   1.453   1_545  S
C3696      C3697   1.444       .  A
C3697      C3698   1.431       .  A
C3697      C3700   1.446       .  S
C3698      C3702   1.450   1_556  S
C3699      N3706   1.157       .  T
C3700      N3707   1.158       .  T
C3701      N3705   1.157       .  T
C3702      N3708   1.156       .  T
C3703      N3712   1.157       .  T
C3704      N3710   1.158       .  T
C3713      C3714   1.413       .  A
C3713      C3718   1.415       .  A
C3713      C3731   1.449       .  S
C3714      C3719   1.544       .  S
C3714      C3715   1.417       .  A
C3715      C3716   1.439       .  A
C3715      C3720   1.453       .  S
C3716      C3717   1.453       .  A
C3716      C3732   1.446       .  S
C3717      C3718   1.434       .  A
C3718      C3721   1.449       .  S
C3719      C3722   1.418       .  A
C3719      C3726   1.412       .  A
C3720      N3737   1.157       .  T
C3721      N3739   1.158       .  T
C3722      C3723   1.433       .  A
C3722      C3727   1.450       .  S
C3723      C3724   1.446       .  A
C3723      C3729   1.451       .  S
C3724      C3725   1.444       .  A
C3725      C3726   1.418       .  A
C3725      C3728   1.451       .  S
C3726      C3730   1.452       .  S
C3727      N3734   1.157       .  T
C3728      N3735   1.158       .  T
C3729      N3733   1.157       .  T
C3730      N3736   1.157       .  T
C3731      N3740   1.157       .  T
C3732      N3738   1.158       .  T
C3741      C3742   1.413       .  A
C3741      C3746   1.432       .  A
C3741      C3759   1.456       .  S
C3742      C3747   1.551       .  S
C3742      C3743   1.411       .  A
C3743      C3744   1.436       .  A
C3743      C3748   1.452       .  S
C3744      C3745   1.448       .  A
C3744      C3760   1.446       .  S
C3745      C3746   1.457       .  A
C3746      C3749   1.452       .  S
C3747      C3750   1.421       .  A
C3747      C3754   1.409       .  A
C3748      N3765   1.158       .  T
C3749      N3767   1.159       .  T
C3750      C3751   1.438       .  A
C3750      C3755   1.449       .  S
C3751      C3752   1.449       .  A
C3751      C3757   1.450       .  S
C3752      C3753   1.447       .  A
C3753      C3754   1.415       .  A
C3753      C3756   1.447       .  S
C3754      C3758   1.452       .  S
C3755      N3762   1.157       .  T
C3756      N3763   1.157       .  T
C3757      N3761   1.157       .  T
C3758      N3764   1.157       .  T
C3759      N3768   1.157       .  T
C3760      N3766   1.157       .  T
C3769      C3770   1.403       .  A
C3769      C3774   1.421   1_565  A
C3769      C3787   1.453       .  S
C3770      C3775   1.509       .  S
C3770      C3771   1.398       .  A
C3771      C3772   1.417   1_565  A
C3771      C3776   1.454       .  S
C3772      C3773   1.456       .  A
C3772      C3788   1.454       .  S
C3773      C3774   1.447       .  A
C3774      C3777   1.446       .  S
C3775      C3778   1.411       .  A
C3775      C3782   1.400       .  A
C3776      N3793   1.157       .  T
C3777      N3795   1.158       .  T
C3778      C3779   1.428       .  A
C3778      C3783   1.451       .  S
C3779      C3780   1.435       .  A
C3779      C3785   1.449       .  S
C3780      C3781   1.440       .  A
C3781      C3782   1.408       .  A
C3781      C3784   1.452       .  S
C3782      C3786   1.451       .  S
C3783      N3790   1.157       .  T
C3784      N3791   1.158       .  T
C3785      N3789   1.157       .  T
C3786      N3792   1.157   1_565  T
C3787      N3796   1.157       .  T
C3788      N3794   1.158       .  T
C3797      C3798   1.392       .  A
C3797      C3802   1.396       .  A
C3797      C3815   1.452   1_655  S
C3798      C3803   1.508   1_556  S
C3798      C3799   1.410       .  A
C3799      C3800   1.432       .  A
C3799      C3804   1.449   1_556  S
C3800      C3801   1.448       .  A
C3800      C3816   1.448       .  S
C3801      C3802   1.439       .  A
C3802      C3805   1.443       .  S
C3803      C3806   1.401       .  A
C3803      C3810   1.403   1_655  A
C3804      N3821   1.157       .  T
C3805      N3823   1.155   1_655  T
C3806      C3807   1.411   1_655  A
C3806      C3811   1.454       .  S
C3807      C3808   1.448       .  A
C3807      C3813   1.454       .  S
C3808      C3809   1.449       .  A
C3809      C3810   1.427       .  A
C3809      C3812   1.446       .  S
C3810      C3814   1.453   1_455  S
C3811      N3818   1.157       .  T
C3812      N3819   1.158       .  T
C3813      N3817   1.158       .  T
C3814      N3820   1.157       .  T
C3815      N3824   1.157       .  T
C3816      N3822   1.157       .  T
C3825      C3826   1.400       .  A
C3825      C3830   1.422       .  A
C3825      C3843   1.455       .  S
C3826      C3831   1.524       .  S
C3826      C3827   1.404       .  A
C3827      C3828   1.428       .  A
C3827      C3832   1.455       .  S
C3828      C3829   1.453       .  A
C3828      C3844   1.446       .  S
C3829      C3830   1.450       .  A
C3830      C3833   1.447       .  S
C3831      C3834   1.403       .  A
C3831      C3838   1.401       .  A
C3832      N3849   1.157       .  T
C3833      N3851   1.157       .  T
C3834      C3835   1.427       .  A
C3834      C3839   1.454       .  S
C3835      C3836   1.448       .  A
C3835      C3841   1.449       .  S
C3836      C3837   1.461       .  A
C3837      C3838   1.424       .  A
C3837      C3840   1.453       .  S
C3838      C3842   1.457       .  S
C3839      N3846   1.157       .  T
C3840      N3847   1.158       .  T
C3841      N3845   1.157       .  T
C3842      N3848   1.157       .  T
C3843      N3852   1.157       .  T
C3844      N3850   1.158       .  T
C3853      C3854   1.410       .  A
C3853      C3858   1.418   1_455  A
C3853      C3871   1.455       .  S
C3854      C3859   1.514       .  S
C3854      C3855   1.405   1_455  A
C3855      C3856   1.422       .  A
C3855      C3860   1.452       .  S
C3856      C3857   1.443       .  A
C3856      C3872   1.446       .  S
C3857      C3858   1.446       .  A
C3858      C3861   1.452       .  S
C3859      C3862   1.403       .  A
C3859      C3866   1.418       .  A
C3860      N3877   1.157       .  T
C3861      N3879   1.158   1_655  T
C3862      C3863   1.401       .  A
C3862      C3867   1.452       .  S
C3863      C3864   1.435       .  A
C3863      C3869   1.450       .  S
C3864      C3865   1.430       .  A
C3865      C3866   1.429       .  A
C3865      C3868   1.451       .  S
C3866      C3870   1.449       .  S
C3867      N3874   1.157       .  T
C3868      N3875   1.157       .  T
C3869      N3873   1.157       .  T
C3870      N3876   1.157       .  T
C3871      N3880   1.157       .  T
C3872      N3878   1.157       .  T
C3881      C3882   1.400       .  A
C3881      C3886   1.422       .  A
C3881      C3899   1.452   1_556  S
C3882      C3887   1.508   1_556  S
C3882      C3883   1.397       .  A
C3883      C3884   1.415       .  A
C3883      C3888   1.454       .  S
C3884      C3885   1.456       .  A
C3884      C3900   1.454       .  S
C3885      C3886   1.448       .  A
C3886      C3889   1.448       .  S
C3887      C3890   1.408       .  A
C3887      C3894   1.406       .  A
C3888      N3905   1.157       .  T
C3889      N3907   1.158       .  T
C3890      C3891   1.417       .  A
C3890      C3895   1.450   1_554  S
C3891      C3892   1.429       .  A
C3891      C3897   1.449       .  S
C3892      C3893   1.433       .  A
C3893      C3894   1.416       .  A
C3893      C3896   1.449       .  S
C3894      C3898   1.451       .  S
C3895      N3902   1.157       .  T
C3896      N3903   1.158       .  T
C3897      N3901   1.158       .  T
C3898      N3904   1.157       .  T
C3899      N3908   1.157       .  T
C3900      N3906   1.158       .  T
C3909      C3910   1.412       .  A
C3909      C3914   1.431       .  A
C3909      C3927   1.453       .  S
C3910      C3915   1.540       .  S
C3910      C3911   1.409       .  A
C3911      C3912   1.419       .  A
C3911      C3916   1.451       .  S
C3912      C3913   1.449       .  A
C3912      C3928   1.451       .  S
C3913      C3914   1.451       .  A
C3914      C3917   1.448       .  S
C3915      C3918   1.411       .  A
C3915      C3922   1.412       .  A
C3916      N3933   1.157       .  T
C3917      N3935   1.158       .  T
C3918      C3919   1.417       .  A
C3918      C3923   1.449       .  S
C3919      C3920   1.437       .  A
C3919      C3925   1.446       .  S
C3920      C3921   1.459       .  A
C3921      C3922   1.435       .  A
C3921      C3924   1.447       .  S
C3922      C3926   1.455       .  S
C3923      N3930   1.157       .  T
C3924      N3931   1.159       .  T
C3925      N3929   1.157       .  T
C3926      N3932   1.157       .  T
C3927      N3936   1.157       .  T
C3928      N3934   1.158       .  T
C3937      C3938   1.408       .  A
C3937      C3942   1.426       .  A
C3937      C3955   1.453       .  S
C3938      C3943   1.529       .  S
C3938      C3939   1.405       .  A
C3939      C3940   1.423       .  A
C3939      C3944   1.455       .  S
C3940      C3941   1.455       .  A
C3940      C3956   1.452       .  S
C3941      C3942   1.443       .  A
C3942      C3945   1.450       .  S
C3943      C3946   1.408       .  A
C3943      C3950   1.406       .  A
C3944      N3961   1.157       .  T
C3945      N3963   1.157       .  T
C3946      C3947   1.423       .  A
C3946      C3951   1.454       .  S
C3947      C3948   1.447       .  A
C3947      C3953   1.448       .  S
C3948      C3949   1.447       .  A
C3949      C3950   1.426       .  A
C3949      C3952   1.446       .  S
C3950      C3954   1.453       .  S
C3951      N3958   1.157       .  T
C3952      N3959   1.156       .  T
C3953      N3957   1.157       .  T
C3954      N3960   1.157       .  T
C3955      N3964   1.157       .  T
C3956      N3962   1.157       .  T
C3965      C3966   1.409       .  A
C3965      C3970   1.428       .  A
C3965      C3983   1.452       .  S
C3966      C3971   1.512       .  S
C3966      C3967   1.397       .  A
C3967      C3968   1.413       .  A
C3967      C3972   1.455       .  S
C3968      C3969   1.453       .  A
C3968      C3984   1.451       .  S
C3969      C3970   1.440       .  A
C3970      C3973   1.443       .  S
C3971      C3974   1.413       .  A
C3971      C3978   1.402       .  A
C3972      N3989   1.157       .  T
C3973      N3991   1.157       .  T
C3974      C3975   1.431       .  A
C3974      C3979   1.449       .  S
C3975      C3976   1.430       .  A
C3975      C3981   1.450       .  S
C3976      C3977   1.443       .  A
C3977      C3978   1.407       .  A
C3977      C3980   1.455       .  S
C3978      C3982   1.452       .  S
C3979      N3986   1.157       .  T
C3980      N3987   1.158       .  T
C3981      N3985   1.157       .  T
C3982      N3988   1.157       .  T
C3983      N3992   1.157       .  T
C3984      N3990   1.158       .  T
