geometry optimzed in LAMMPS
_audit_creation_date              2020-11-30 
_audit_creation_method            'lammps2cif' 
_symmetry_space_group_name_H-M    'P1' 
_symmetry_Int_Tables_number       1 
_symmetry_cell_setting            triclinic 
loop_ 
_symmetry_equiv_pos_as_xyz 
  x,y,z 
_cell_length_a                    49.0255749 
_cell_length_b                    49.150362290347864 
_cell_length_c                    49.10463919036179 
_cell_angle_alpha                 90.26016759684693 
_cell_angle_beta                  90.0438723835172 
_cell_angle_gamma                 89.78571598369088 
loop_ 
_atom_site_label 
_atom_site_type_symbol 
_atom_site_fract_x 
_atom_site_fract_y 
_atom_site_fract_z 
_atom_site_charge 
C1          C  0.57504520  0.88861690  0.68465919     0.04100
C2          C  0.55029751  0.87666508  0.67729894    -0.12100
C3          C  0.52719814  0.89258866  0.67330652     0.01600
C4          C  0.52881371  0.92076428  0.67605209    -0.10600
C5          C  0.55312257  0.93338933  0.68498549     0.04100
C6          C  0.57659268  0.91694747  0.68865284    -0.10000
H7          H  0.54883542  0.85471282  0.67541114     0.09700
H8          H  0.51059078  0.93245520  0.67180851     0.07200
H9          H  0.59555358  0.92563926  0.69577908     0.07000
C10         C  0.57500263  0.00723428  0.69796030     0.04100
C11         C  0.57652199  0.97935742  0.69134298    -0.12100
C12         C  0.55279984  0.96304166  0.69224991     0.01600
C13         C  0.52797658  0.97541894  0.70013867    -0.10600
C14         C  0.52631683  0.00323467  0.70534637     0.04100
C15         C  0.54979169  0.01904956  0.70440003    -0.10000
H16         H  0.59592355  0.97080477  0.68514678     0.09700
H17         H  0.50944970  0.96375903  0.70217939     0.07200
H18         H  0.54838621  0.04075153  0.70830524     0.07000
C19         C  0.92972245  0.69306556  0.52774962     0.04100
C20         C  0.95833410  0.69086497  0.52914969    -0.12100
C21         C  0.97462766  0.69546670  0.50573147     0.01600
C22         C  0.96113637  0.70223708  0.48112921    -0.10600
C23         C  0.93264796  0.70310124  0.47953563     0.04100
C24         C  0.91714922  0.69867937  0.50284007    -0.10000
H25         H  0.96745245  0.68506755  0.54831872     0.09700
H26         H  0.97237246  0.70653117  0.46274590     0.07200
H27         H  0.89506244  0.69894127  0.50144790     0.07000
C28         C  0.04890285  0.69533562  0.53089300     0.04100
C29         C  0.06293115  0.69233685  0.50631111    -0.12100
C30         C  0.04888972  0.68841834  0.48197128     0.01600
C31         C  0.02028016  0.68820970  0.48215217    -0.10600
C32         C  0.00532778  0.69294659  0.50645604     0.04100
C33         C  0.02022030  0.69601656  0.53102542    -0.10000
H34         H  0.08501571  0.69354557  0.50614010     0.09700
H35         H  0.01007954  0.68459181  0.46297813     0.07200
H36         H  0.00993582  0.69957083  0.55017344     0.07000
C37         C  0.54885978  0.69387873  0.35932648     0.04100
C38         C  0.56259748  0.69192677  0.38416373    -0.12100
C39         C  0.54822439  0.69063751  0.40847742     0.01600
C40         C  0.51968963  0.69065473  0.40805643    -0.10600
C41         C  0.50503641  0.69387677  0.38337451     0.04100
C42         C  0.52019008  0.69530457  0.35882660    -0.10000
H43         H  0.58471362  0.69101320  0.38452486     0.09700
H44         H  0.50930476  0.68780203  0.42722297     0.07200
H45         H  0.51012953  0.69759707  0.33937921     0.07000
C46         C  0.42964210  0.69150245  0.36150247     0.04100
C47         C  0.41682746  0.69820374  0.38609142    -0.12100
C48         C  0.43214047  0.70455023  0.40914907     0.01600
C49         C  0.46061814  0.70390142  0.40779938    -0.10600
C50         C  0.47433249  0.69576982  0.38371702     0.04100
C51         C  0.45829383  0.68959647  0.36044478    -0.10000
H52         H  0.39473612  0.69897998  0.38715366     0.09700
H53         H  0.47172001  0.71011987  0.42577790     0.07200
H54         H  0.46766703  0.68307637  0.34159474     0.07000
C55         C  0.73606690  0.52683501  0.88992601     0.04100
C56         C  0.73327589  0.52761173  0.91842552    -0.12100
C57         C  0.73620309  0.50357533  0.93407355     0.01600
C58         C  0.74207470  0.47895826  0.92001379    -0.10600
C59         C  0.74404828  0.47817692  0.89153422     0.04100
C60         C  0.74130762  0.50213243  0.87676901    -0.10000
H61         H  0.72794785  0.54678446  0.92791776     0.09700
H62         H  0.74496623  0.46004499  0.93075639     0.07200
H63         H  0.74201637  0.50137191  0.85469167     0.07000
C64         C  0.73402778  0.52757818  0.00866049     0.04100
C65         C  0.72865846  0.50314531  0.02204330    -0.12100
C66         C  0.72495136  0.47908629  0.00739625     0.01600
C67         C  0.72616911  0.47964741  0.97883613    -0.10600
C68         C  0.73254028  0.50385766  0.96462271     0.04100
C69         C  0.73631544  0.52794472  0.98013669    -0.10000
H70         H  0.72894804  0.50265704  0.04411685     0.09700
H71         H  0.72266229  0.46073948  0.96813537     0.07200
H72         H  0.74197544  0.54683208  0.97051602     0.07000
Zn73       Zn  0.72745126  0.26738059  0.73458428     1.49700
Zn74       Zn  0.70035207  0.21513973  0.76252544     1.49400
Zn75       Zn  0.67186078  0.27240334  0.76716490     1.49100
Zn76       Zn  0.67121749  0.24154752  0.71095174     1.49500
O77         O  0.69302223  0.24908075  0.74340705    -1.83200
O78         O  0.75992890  0.24521381  0.74843236    -0.73800
O79         O  0.67658798  0.21139566  0.79628041    -0.73600
O80         O  0.69536935  0.30111234  0.78382897    -0.73100
O81         O  0.74010472  0.21294492  0.77289780    -0.73800
O82         O  0.73123153  0.30295980  0.75619748    -0.73400
O83         O  0.65524077  0.25105750  0.79733363    -0.74000
O84         O  0.63624952  0.26442243  0.71019045    -0.73400
O85         O  0.69015686  0.18291058  0.73941130    -0.74200
O86         O  0.64106444  0.29034846  0.74698247    -0.73500
O87         O  0.66266397  0.20115694  0.70832174    -0.74000
O88         O  0.69228592  0.25284302  0.67758759    -0.73900
O89         O  0.72941694  0.27391824  0.69336259    -0.73700
C90         C  0.76139095  0.22573219  0.76552260     0.78100
C91         C  0.65879567  0.22728833  0.80670630     0.78600
C92         C  0.71790166  0.31167613  0.77680299     0.77500
C93         C  0.62846198  0.28427659  0.72515538     0.77900
C94         C  0.67305668  0.18042528  0.72006764     0.79000
C95         C  0.71408695  0.26630632  0.67366979     0.78100
Zn96       Zn  0.27313863  0.74971761  0.61139503     1.49700
Zn97       Zn  0.26701452  0.72649111  0.67206501     1.49400
Zn98       Zn  0.32613646  0.73235869  0.64349280     1.49100
Zn99       Zn  0.29371728  0.78444575  0.66133636     1.49500
O100        O  0.28978389  0.74792911  0.64720167    -1.83200
O101        O  0.23729430  0.73029924  0.61086801    -0.73800
O102        O  0.28632536  0.69041111  0.67971909    -0.73600
O103        O  0.33642942  0.72793930  0.60410143    -0.73100
O104        O  0.22985630  0.71893222  0.65390062    -0.73800
O105        O  0.29867731  0.73762981  0.58130010    -0.73400
O106        O  0.32722040  0.69583259  0.66132097    -0.74000
O107        O  0.33265458  0.79537510  0.66234697    -0.73400
O108        O  0.26181821  0.74666452  0.70869428    -0.74200
O109        O  0.35566807  0.75696456  0.65780259    -0.73500
O110        O  0.28072659  0.78635829  0.69943402    -0.74000
O111        O  0.27487866  0.81254087  0.63856570    -0.73900
O112        O  0.26400035  0.78806805  0.60227544    -0.73700
C113        C  0.22162440  0.72091396  0.62926630     0.78100
C114        C  0.31015724  0.68132666  0.67436587     0.78600
C115        C  0.32375450  0.73087049  0.58169042     0.77500
C116        C  0.35517580  0.78252084  0.66178106     0.77900
C117        C  0.26881028  0.77066665  0.71599193     0.79000
C118        C  0.26550102  0.81079629  0.61447901     0.78100
C119        C  0.07102204  0.50349106  0.18572636     0.04100
C120        C  0.07101942  0.47498997  0.18752017    -0.12100
C121        C  0.04623959  0.46045740  0.19065547     0.01600
C122        C  0.02179851  0.47598411  0.19238896    -0.10600
C123        C  0.02188916  0.50430617  0.18936528     0.04100
C124        C  0.04647449  0.51786503  0.18612687    -0.10000
H125        H  0.09051972  0.46473214  0.18646357     0.09700
H126        H  0.00228605  0.46659311  0.19671093     0.07200
H127        H  0.04659311  0.53989961  0.18505936     0.07000
C128        C  0.06877744  0.38546268  0.19742298     0.04100
C129        C  0.06981395  0.41402327  0.19653521    -0.12100
C130        C  0.04569752  0.42970120  0.19247056     0.01600
C131        C  0.02085422  0.41531429  0.18940204    -0.10600
C132        C  0.01983675  0.38697961  0.19165920     0.04100
C133        C  0.04377721  0.37223275  0.19534361    -0.10000
H134        H  0.08956784  0.42342432  0.19882431     0.09700
H135        H  0.00188206  0.42563140  0.18447204     0.07200
H136        H  0.04302798  0.35019295  0.19587629     0.07000
Zn137      Zn  0.78355473  0.68644880  0.26450758     1.49700
Zn138      Zn  0.81612115  0.63184530  0.26747810     1.49400
Zn139      Zn  0.75835545  0.63192827  0.23865097     1.49100
Zn140      Zn  0.81047569  0.65989730  0.21058688     1.49500
O141        O  0.79176653  0.65271594  0.24495069    -1.83200
O142        O  0.80518396  0.69002853  0.29981728    -0.73800
O143        O  0.79643963  0.60153354  0.28482634    -0.73600
O144        O  0.72561872  0.65400977  0.25070533    -0.73100
O145        O  0.83285341  0.65432549  0.29692743    -0.73800
O146        O  0.74326990  0.68992717  0.27193433    -0.73400
O147        O  0.75763949  0.59747830  0.26214987    -0.74000
O148        O  0.78673665  0.64825795  0.17903303    -0.73400
O149        O  0.84600576  0.61511223  0.24596443    -0.74200
O150        O  0.75422242  0.62342148  0.19819976    -0.73500
O151        O  0.84525951  0.63719785  0.20668280    -0.74000
O152        O  0.81948800  0.69998681  0.20802633    -0.73900
O153        O  0.79583185  0.71823942  0.24240798    -0.73700
C154        C  0.82568500  0.67647381  0.30828434     0.78100
C155        C  0.77400824  0.58945728  0.28075212     0.78600
C156        C  0.72280752  0.67570674  0.26475749     0.77500
C157        C  0.76622993  0.63253492  0.17702525     0.77900
C158        C  0.85553174  0.61928178  0.22236397     0.79000
C159        C  0.81134669  0.72052557  0.22180164     0.78100
C160        C  0.93297275  0.19911873  0.87193380     0.04100
C161        C  0.96160845  0.20172812  0.87064194    -0.12100
C162        C  0.97793147  0.19616636  0.89381710     0.01600
C163        C  0.96471318  0.18765785  0.91791090    -0.10600
C164        C  0.93618816  0.18673327  0.91982440     0.04100
C165        C  0.92056507  0.19263963  0.89672755    -0.10000
H166        H  0.97085504  0.20823779  0.85177196     0.09700
H167        H  0.97642881  0.18199721  0.93568676     0.07200
H168        H  0.89849371  0.19248461  0.89806582     0.07000
C169        C  0.05291610  0.19772748  0.87072548     0.04100
C170        C  0.02422310  0.19578404  0.86979614    -0.12100
C171        C  0.00846671  0.19963952  0.89369501     0.01600
C172        C  0.02230335  0.20573993  0.91829654    -0.10600
C173        C  0.05085641  0.20634808  0.91964309     0.04100
C174        C  0.06589543  0.20252588  0.89575670    -0.10000
H175        H  0.01448235  0.19025591  0.85080095     0.09700
H176        H  0.01109014  0.20966063  0.93687163     0.07200
H177        H  0.08798619  0.20241420  0.89675636     0.07000
Zn178      Zn  0.74864347  0.26147261  0.15186931     1.49700
Zn179      Zn  0.80453393  0.24143812  0.17883661     1.49400
Zn180      Zn  0.77971242  0.20836791  0.12897529     1.49100
Zn181      Zn  0.80406979  0.26664078  0.11901125     1.49500
O182        O  0.78413407  0.24452390  0.14486121    -1.83200
O183        O  0.74311397  0.26988018  0.19196307    -0.73800
O184        O  0.81414160  0.20238426  0.18670971    -0.73600
O185        O  0.74061160  0.20225267  0.11835589    -0.73100
O186        O  0.78234191  0.25589148  0.21000867    -0.73800
O187        O  0.71900804  0.23687869  0.13842252    -0.73400
O188        O  0.79150033  0.17941791  0.15496763    -0.74000
O189        O  0.82013759  0.24422717  0.08860850    -0.73400
O190        O  0.83892099  0.26406834  0.17790337    -0.74200
O191        O  0.80417453  0.20277888  0.09626152    -0.73500
O192        O  0.83570250  0.28394503  0.13758256    -0.74000
O193        O  0.78078524  0.29672883  0.10371168    -0.73900
O194        O  0.74417299  0.29652455  0.13047951    -0.73700
C195        C  0.75894704  0.26691577  0.21232757     0.78100
C196        C  0.80687432  0.17999866  0.17584310     0.78600
C197        C  0.71879842  0.21511701  0.12424778     0.77500
C198        C  0.81910760  0.21900151  0.08282126     0.77900
C199        C  0.84767981  0.28086593  0.16028870     0.79000
C200        C  0.75806359  0.30685375  0.11123142     0.78100
C201        C  0.43079232  0.19270048  0.02161417     0.04100
C202        C  0.41801843  0.20011541  0.99734065    -0.12100
C203        C  0.43334681  0.20600762  0.97421630     0.01600
C204        C  0.46187410  0.20534908  0.97569897    -0.10600
C205        C  0.47548949  0.19661993  0.99948218     0.04100
C206        C  0.45938224  0.19049793  0.02265307    -0.10000
H207        H  0.39591908  0.20035941  0.99622033     0.09700
H208        H  0.47302010  0.21111279  0.95769097     0.07200
H209        H  0.46857564  0.18328149  0.04128963     0.07000
C210        C  0.54929858  0.18894493  0.02395529     0.04100
C211        C  0.52098717  0.19299457  0.02412681    -0.12100
C212        C  0.50603176  0.19292190  0.99949551     0.01600
C213        C  0.52078192  0.18970806  0.97476121    -0.10600
C214        C  0.54928867  0.18691412  0.97472201     0.04100
C215        C  0.56320708  0.18607272  0.99937905    -0.10000
H216        H  0.51109942  0.19667054  0.04346765     0.09700
H217        H  0.51062980  0.18987128  0.95527735     0.07200
H218        H  0.58528469  0.18435801  0.99941508     0.07000
C219        C  0.26698740  0.86504752  0.89242608     0.04100
C220        C  0.27126430  0.88967469  0.87903504    -0.12100
C221        C  0.27298494  0.91392911  0.89357697     0.01600
C222        C  0.27167368  0.91343980  0.92202795    -0.10600
C223        C  0.26537986  0.88918052  0.93624903     0.04100
C224        C  0.26348376  0.86476437  0.92084797    -0.10000
H225        H  0.27267230  0.89000887  0.85698741     0.09700
H226        H  0.27520347  0.93242811  0.93251043     0.07200
H227        H  0.25893305  0.84558354  0.93040805     0.07000
C228        C  0.25265227  0.86742106  0.01057534     0.04100
C229        C  0.25933618  0.86607851  0.98268246    -0.12100
C230        C  0.25949964  0.88995409  0.96646630     0.01600
C231        C  0.25347123  0.91501389  0.97952645    -0.10600
C232        C  0.24845370  0.91642971  0.00746291     0.04100
C233        C  0.24770380  0.89270812  0.02275724    -0.10000
H234        H  0.26472100  0.84649608  0.97417387     0.09700
H235        H  0.25256779  0.93392050  0.96852334     0.07200
H236        H  0.24357838  0.89398184  0.04443034     0.07000
Zn237      Zn  0.32699449  0.16545778  0.74360340     1.49700
Zn238      Zn  0.26627647  0.17188631  0.72071636     1.49400
Zn239      Zn  0.29266171  0.11245816  0.72931021     1.49100
Zn240      Zn  0.27699074  0.14797635  0.78021981     1.49500
O241        O  0.29063171  0.14959354  0.74324511    -1.83200
O242        O  0.32801068  0.20019921  0.72232192    -0.73800
O243        O  0.25772710  0.15126294  0.68579012    -0.73600
O244        O  0.33153260  0.10216575  0.72273562    -0.73100
O245        O  0.28500816  0.20768729  0.71039794    -0.73800
O246        O  0.35586335  0.13891631  0.73121720    -0.73400
O247        O  0.27336025  0.10959156  0.69313172    -0.74000
O248        O  0.27586318  0.10960377  0.79389115    -0.73400
O249        O  0.23045263  0.17985044  0.74102579    -0.74200
O250        O  0.28055575  0.08420945  0.75693376    -0.73500
O251        O  0.23943789  0.16336165  0.78215785    -0.74000
O252        O  0.30104130  0.16793099  0.80639216    -0.73900
O253        O  0.33772777  0.17575486  0.78145183    -0.73700
C254        C  0.30981094  0.21544019  0.71173650     0.78100
C255        C  0.26150264  0.12685188  0.67773265     0.78600
C256        C  0.35451347  0.11393970  0.72460237     0.77500
C257        C  0.27721345  0.08634500  0.78262442     0.77900
C258        C  0.22344116  0.17526466  0.76564477     0.79000
C259        C  0.32539531  0.17644408  0.80414268     0.78100
C260        C  0.23567118  0.02070016  0.39099748     0.04100
C261        C  0.23212879  0.02311583  0.41922578    -0.12100
C262        C  0.22706324  0.99993184  0.43547937     0.01600
C263        C  0.22494934  0.97439724  0.42196346    -0.10600
C264        C  0.22933981  0.97197798  0.39381729     0.04100
C265        C  0.23519413  0.99509412  0.37861826    -0.10000
H266        H  0.23346562  0.04326204  0.42788475     0.09700
H267        H  0.21938280  0.95615049  0.43272265     0.07200
H268        H  0.23796485  0.99333223  0.35676632     0.07000
C269        C  0.22058331  0.02948085  0.50802666     0.04100
C270        C  0.22162768  0.00583185  0.52350504    -0.12100
C271        C  0.22435203  0.98061690  0.51103122     0.01600
C272        C  0.22641704  0.97878379  0.48266086    -0.10600
C273        C  0.22420777  0.00221400  0.46608574     0.04100
C274        C  0.22082746  0.02774692  0.47945073    -0.10000
H275        H  0.22171952  0.00715671  0.54557966     0.09700
H276        H  0.23072947  0.95895608  0.47415565     0.07200
H277        H  0.21894276  0.04649266  0.46829207     0.07000
Zn278      Zn  0.20282595  0.18389800  0.13457470     1.49700
Zn279      Zn  0.22880138  0.12872106  0.15979304     1.49400
Zn280      Zn  0.17436167  0.15389303  0.18506681     1.49100
Zn281      Zn  0.17419981  0.12685962  0.12541535     1.49500
O282        O  0.19511491  0.14855408  0.15134957    -1.83200
O283        O  0.24350376  0.18667796  0.12655465    -0.73800
O284        O  0.23144725  0.11939812  0.19987155    -0.73600
O285        O  0.16608859  0.19371937  0.19119428    -0.73100
O286        O  0.26113273  0.15059239  0.14753885    -0.73800
O287        O  0.18962927  0.21480357  0.15892965    -0.73400
O288        O  0.19437993  0.13845495  0.21786171    -0.74000
O289        O  0.14117615  0.11157176  0.14346483    -0.73400
O290        O  0.23189346  0.09353176  0.13825576    -0.74200
O291        O  0.13861798  0.13369648  0.18302846    -0.73500
O292        O  0.19612987  0.09573430  0.11054851    -0.74000
O293        O  0.16081003  0.14897671  0.09376729    -0.73900
O294        O  0.18126022  0.18888733  0.09922494    -0.73700
C295        C  0.26398365  0.17204422  0.13339734     0.78100
C296        C  0.21614704  0.12439938  0.22026349     0.78600
C297        C  0.17361944  0.21546293  0.17941505     0.77500
C298        C  0.12898886  0.11694589  0.16570797     0.77900
C299        C  0.21802377  0.08425479  0.11839290     0.79000
C300        C  0.16513019  0.17326279  0.08616962     0.78100
C301        C  0.91105318  0.89320300  0.21413565     0.04100
C302        C  0.91002823  0.92142854  0.20995923    -0.12100
C303        C  0.93370840  0.93749439  0.21357358     0.01600
C304        C  0.95805908  0.92424151  0.22178556    -0.10600
C305        C  0.95920723  0.89594277  0.22465826     0.04100
C306        C  0.93574300  0.88063548  0.22067147    -0.10000
H307        H  0.89098320  0.93031358  0.20329295     0.09700
H308        H  0.97654837  0.93549816  0.22568751     0.07200
H309        H  0.93676833  0.85863456  0.22210282     0.07000
C310        C  0.90987105  0.01137456  0.20394967     0.04100
C311        C  0.90922385  0.98320671  0.20877319    -0.12100
C312        C  0.93360571  0.96758863  0.20807277     0.01600
C313        C  0.95823820  0.98110956  0.20169596    -0.10600
C314        C  0.95875120  0.00923357  0.19772418     0.04100
C315        C  0.93473315  0.02418891  0.19916431    -0.10000
H316        H  0.88978048  0.97386881  0.21297215     0.09700
H317        H  0.97723002  0.97012943  0.19938290     0.07200
H318        H  0.93529795  0.04599178  0.19581158     0.07000
Zn319      Zn  0.21227596  0.71650469  0.22068240     1.49700
Zn320      Zn  0.18922351  0.77594631  0.23266398     1.49400
Zn321      Zn  0.15248177  0.72455437  0.24640010     1.49100
Zn322      Zn  0.20364417  0.73782490  0.28228625     1.49500
O323        O  0.18949575  0.73854880  0.24533048    -1.83200
O324        O  0.22012485  0.73715970  0.18537819    -0.73800
O325        O  0.15073692  0.78949525  0.23010339    -0.73600
O326        O  0.14968546  0.69092910  0.22363566    -0.73100
O327        O  0.20579962  0.77891030  0.19518419    -0.73800
O328        O  0.19211823  0.68161781  0.21074551    -0.73400
O329        O  0.12481833  0.75314670  0.23610927    -0.74000
O330        O  0.17825334  0.71988726  0.30917486    -0.73400
O331        O  0.20717094  0.80147324  0.25944057    -0.74200
O332        O  0.14171095  0.71299230  0.28407456    -0.73500
O333        O  0.21042408  0.77582358  0.29626533    -0.74000
O334        O  0.23972068  0.71921571  0.28226493    -0.73900
O335        O  0.24839926  0.70726365  0.23946623    -0.73700
C336        C  0.21653170  0.76194547  0.17858535     0.78100
C337        C  0.12734448  0.77848520  0.23159404     0.78600
C338        C  0.16694601  0.67514443  0.21235396     0.77500
C339        C  0.15361157  0.71202936  0.30698617     0.77900
C340        C  0.21231665  0.79887940  0.28469681     0.79000
C341        C  0.25574104  0.70932120  0.26434020     0.78100
C342        C  0.40816029  0.38737322  0.68033395     0.04100
C343        C  0.40608797  0.41591990  0.68212569    -0.12100
C344        C  0.42982321  0.43215419  0.68518147     0.01600
C345        C  0.45527375  0.41835553  0.68671429    -0.10600
C346        C  0.45730126  0.39022114  0.68323061     0.04100
C347        C  0.43378941  0.37490893  0.67967472    -0.10000
H348        H  0.38592826  0.42478468  0.68207490     0.09700
H349        H  0.47392938  0.42867701  0.69188478     0.07200
H350        H  0.43531182  0.35289548  0.67871465     0.07000
C351        C  0.40375996  0.50581041  0.69602660     0.04100
C352        C  0.40368207  0.47733147  0.69233624    -0.12100
C353        C  0.42855788  0.46282543  0.68841908     0.01600
C354        C  0.45286927  0.47829072  0.68750331    -0.10600
C355        C  0.45285034  0.50619183  0.69272418     0.04100
C356        C  0.42846229  0.51974617  0.69739972    -0.10000
H357        H  0.38423756  0.46714959  0.69239028     0.09700
H358        H  0.47228471  0.46939737  0.68221700     0.07200
H359        H  0.42860628  0.54159577  0.70068133     0.07000
C360        C  0.72686996  0.37021425  0.38049377     0.04100
C361        C  0.73423835  0.39543923  0.36962609    -0.12100
C362        C  0.74028705  0.41744037  0.38650639     0.01600
C363        C  0.74121380  0.41360891  0.41470543    -0.10600
C364        C  0.73335784  0.38858675  0.42653926     0.04100
C365        C  0.72625455  0.36686100  0.40896110    -0.10000
H366        H  0.73521937  0.39806672  0.34775505     0.09700
H367        H  0.74832098  0.43031905  0.42717248     0.07200
H368        H  0.71990884  0.34748430  0.41711172     0.07000
C369        C  0.73412932  0.35933756  0.49915925     0.04100
C370        C  0.73153070  0.38331875  0.51429868    -0.12100
C371        C  0.72781506  0.40815615  0.50147724     0.01600
C372        C  0.72760643  0.40942641  0.47310349    -0.10600
C373        C  0.73197904  0.38591551  0.45700005     0.04100
C374        C  0.73486293  0.36052602  0.47046493    -0.10000
H375        H  0.73181082  0.38254946  0.53638044     0.09700
H376        H  0.72370310  0.42899627  0.46389684     0.07200
H377        H  0.73801397  0.34191320  0.45905337     0.07000
Zn378      Zn  0.72180993  0.62278910  0.65497229     1.49700
Zn379      Zn  0.66920265  0.65217841  0.68076615     1.49400
Zn380      Zn  0.69471665  0.67518952  0.62528285     1.49100
Zn381      Zn  0.66421768  0.61964510  0.62606974     1.49500
O382        O  0.68798574  0.64271552  0.64699355    -1.83200
O383        O  0.72456793  0.61544914  0.69609227    -0.73800
O384        O  0.66020023  0.69227294  0.68210909    -0.73600
O385        O  0.73496704  0.67852597  0.61783438    -0.73100
O386        O  0.69161117  0.64165714  0.71306501    -0.73800
O387        O  0.75412345  0.64487722  0.64139492    -0.73400
O388        O  0.68113845  0.70844496  0.64528498    -0.74000
O389        O  0.64747476  0.63886062  0.59466898    -0.73400
O390        O  0.63499220  0.62993585  0.68591167    -0.74200
O391        O  0.67349215  0.67517616  0.58945776    -0.73500
O392        O  0.63471037  0.60439548  0.64873063    -0.74000
O393        O  0.68436557  0.58843701  0.61085251    -0.73900
O394        O  0.72349228  0.58693195  0.63338167    -0.73700
C395        C  0.71148846  0.62534552  0.71642781     0.78100
C396        C  0.66678110  0.71191578  0.66662710     0.78600
C397        C  0.75601460  0.66539051  0.62560678     0.77500
C398        C  0.65387379  0.66009571  0.58160041     0.77900
C399        C  0.62488698  0.61067658  0.67184260     0.79000
C400        C  0.70713184  0.57709771  0.61571283     0.78100
C401        C  0.70033662  0.46287843  0.54872059    -0.10900
C402        C  0.72283485  0.48036621  0.55025455     0.11700
C403        C  0.74708218  0.47401652  0.53592930    -0.02700
C404        C  0.74773778  0.45034237  0.51981177    -0.05500
C405        C  0.72511910  0.43307016  0.51802840    -0.16200
C406        C  0.70093978  0.43929680  0.53248414     0.02700
C407        C  0.72000137  0.50565100  0.56646090     0.12600
C408        C  0.77211363  0.49204680  0.53788159     0.63300
H409        H  0.76604485  0.44487852  0.50868814     0.12700
C410        C  0.67579911  0.42144784  0.53019342     0.55400
H411        H  0.68214098  0.46812237  0.56012381     0.08500
C412        C  0.70639423  0.52867623  0.55589800    -0.05400
C413        C  0.70377285  0.55176328  0.57254205    -0.06100
C414        C  0.71403670  0.55254454  0.59932931    -0.15700
C415        C  0.72815864  0.52954963  0.60969306    -0.01300
C416        C  0.73060206  0.50626562  0.59299901    -0.08800
C417        C  0.69447509  0.52880201  0.52725815     0.65500
H418        H  0.69323784  0.56949666  0.56473645     0.10900
C419        C  0.74003112  0.52918750  0.63823540     0.63900
H420        H  0.74073872  0.48818346  0.60052795     0.08300
F421        F  0.66875616  0.41821938  0.50308444    -0.19200
F422        F  0.65366216  0.43269726  0.54368688    -0.15400
F423        F  0.68099138  0.39621352  0.54140081    -0.18900
F424        F  0.78153393  0.49252646  0.56441274    -0.22300
F425        F  0.76567156  0.51826151  0.53001467    -0.23800
F426        F  0.79306528  0.48273720  0.52136846    -0.17800
F427        F  0.71982142  0.53486848  0.65708401    -0.20200
F428        F  0.76045796  0.54840770  0.64031967    -0.21400
F429        F  0.75125679  0.50411171  0.64459862    -0.18600
F430        F  0.68313165  0.55377478  0.52072221    -0.18700
F431        F  0.67420745  0.50944843  0.52507230    -0.22500
F432        F  0.71464709  0.52308726  0.50841510    -0.24100
C433        C  0.51219670  0.54963791  0.67054786    -0.10900
C434        C  0.52876494  0.54857269  0.69377287     0.11700
C435        C  0.51997995  0.53447481  0.71720160    -0.02700
C436        C  0.49488456  0.52077768  0.71609468    -0.05500
C437        C  0.47860965  0.52142092  0.69260056    -0.16200
C438        C  0.48712780  0.53611852  0.66947704     0.02700
C439        C  0.55526027  0.56257792  0.69237480     0.12600
C440        C  0.53690979  0.53411125  0.74311314     0.63300
H441        H  0.48765359  0.50953132  0.73356654     0.12700
C442        C  0.46990168  0.53730393  0.64380659     0.55400
H443        H  0.51929324  0.56104565  0.65312072     0.08500
C444        C  0.57753633  0.55092550  0.67826687    -0.05400
C445        C  0.60050383  0.56707659  0.67354200    -0.06100
C446        C  0.60166858  0.59442491  0.68206566    -0.15700
C447        C  0.58001220  0.60545291  0.69787459    -0.01300
C448        C  0.55691034  0.58921936  0.70248680    -0.08800
C449        C  0.57650452  0.52207177  0.66695386     0.65500
H450        H  0.61741700  0.55867670  0.66203748     0.10900
C451        C  0.58062506  0.63432163  0.70899204     0.63900
H452        H  0.53941207  0.59750260  0.71316794     0.08300
F453        F  0.46451927  0.51123018  0.63461110    -0.19200
F454        F  0.48292100  0.55117802  0.62310159    -0.15400
F455        F  0.44559022  0.55054720  0.64928447    -0.18900
F456        F  0.53944406  0.56027625  0.75320613    -0.22300
F457        F  0.56260352  0.52371169  0.73783061    -0.23800
F458        F  0.52503954  0.51828667  0.76308846    -0.17800
F459        F  0.55672708  0.64108164  0.72246577    -0.20200
F460        F  0.58402392  0.65256402  0.68790730    -0.21400
F461        F  0.60187275  0.63693170  0.72735537    -0.18600
F462        F  0.60163954  0.51363705  0.65715361    -0.18700
F463        F  0.55795895  0.52077452  0.64578221    -0.22500
F464        F  0.56871500  0.50409562  0.68703371    -0.24100
C465        C  0.05579474  0.80591354  0.21728753    -0.10900
C466        C  0.05781892  0.83207678  0.22859610     0.11700
C467        C  0.08248428  0.84058940  0.24075993    -0.02700
C468        C  0.10474660  0.82253548  0.24070405    -0.05500
C469        C  0.10285341  0.79617328  0.22954940    -0.16200
C470        C  0.07797990  0.78766027  0.21746080     0.02700
C471        C  0.03347880  0.84996169  0.22779080     0.12600
C472        C  0.08501186  0.86831529  0.25437676     0.63300
H473        H  0.12369885  0.82865415  0.25023433     0.12700
C474        C  0.07474749  0.75970679  0.20455885     0.55400
H475        H  0.03646626  0.79983986  0.20850018     0.08500
C476        C  0.02659019  0.86508400  0.20429886    -0.05400
C477        C  0.00273283  0.88097560  0.20473309    -0.06100
C478        C  0.98561752  0.88170599  0.22759116    -0.15700
C479        C  0.99278965  0.86703655  0.25129589    -0.01300
C480        C  0.01674090  0.85121492  0.25091729    -0.08800
C481        C  0.04401272  0.86394067  0.17873266     0.65500
H482        H  0.99663358  0.89222956  0.18679813     0.10900
C483        C  0.97543319  0.86835169  0.27686219     0.63900
H484        H  0.02245304  0.83932804  0.26856078     0.08300
F485        F  0.09632518  0.75435370  0.18716720    -0.19200
F486        F  0.05092492  0.75783952  0.18952009    -0.15400
F487        F  0.07393189  0.74012724  0.22467815    -0.18900
F488        F  0.06822325  0.86944881  0.27695743    -0.22300
F489        F  0.07748627  0.88865806  0.23651111    -0.23800
F490        F  0.11144611  0.87343939  0.26284773    -0.17800
F491        F  0.95051537  0.85613237  0.27224120    -0.20200
F492        F  0.97126052  0.89522036  0.28430085    -0.21400
F493        F  0.98782519  0.85518048  0.29848087    -0.18600
F494        F  0.03421494  0.88117272  0.15872615    -0.18700
F495        F  0.04418239  0.83778010  0.16829886    -0.22500
F496        F  0.07046515  0.87154754  0.18470497    -0.24100
C497        C  0.05474991  0.10012734  0.17918374    -0.10900
C498        C  0.05610176  0.07163821  0.17998809     0.11700
C499        C  0.08141302  0.05816658  0.17643494    -0.02700
C500        C  0.10477381  0.07389911  0.17194751    -0.05500
C501        C  0.10356466  0.10238149  0.17168103    -0.16200
C502        C  0.07833239  0.11590749  0.17565557     0.02700
C503        C  0.03074163  0.05626174  0.18493749     0.12600
C504        C  0.08371079  0.02734382  0.17739422     0.63300
H505        H  0.12432483  0.06406521  0.16868097     0.12700
C506        C  0.07633140  0.14671600  0.17582978     0.55400
H507        H  0.03505505  0.10987006  0.18169650     0.08500
C508        C  0.01986019  0.05331007  0.21144854    -0.05400
C509        C  0.99681464  0.03681602  0.21488578    -0.06100
C510        C  0.98443505  0.02376887  0.19269439    -0.15700
C511        C  0.99482536  0.02731887  0.16611418    -0.01300
C512        C  0.01796497  0.04370141  0.16265497    -0.08800
C513        C  0.03235190  0.06773764  0.23585757     0.65500
H514        H  0.98786404  0.03435900  0.23488518     0.10900
C515        C  0.98142093  0.01387505  0.14168112     0.63900
H516        H  0.02649871  0.04666215  0.14254912     0.08300
F517        F  0.09087465  0.15700450  0.19766353    -0.19200
F518        F  0.04961614  0.15564491  0.17819931    -0.15400
F519        F  0.08688772  0.15695366  0.15188973    -0.18900
F520        F  0.06994614  0.01604278  0.15556034    -0.22300
F521        F  0.07258595  0.01773357  0.20134814    -0.23800
F522        F  0.11058744  0.01868266  0.17619650    -0.17800
F523        F  0.95443160  0.02196632  0.13987853    -0.20200
F524        F  0.98259179  0.98591568  0.14447152    -0.21400
F525        F  0.99423601  0.02069106  0.11755427    -0.18600
F526        F  0.01950110  0.06077276  0.25991751    -0.18700
F527        F  0.02995789  0.09557618  0.23271292    -0.22500
F528        F  0.05963485  0.06092097  0.23819904    -0.24100
C529        C  0.20383677  0.91271456  0.35093906    -0.10900
C530        C  0.22675427  0.89557084  0.35091729     0.11700
C531        C  0.25058457  0.90341340  0.36521542    -0.02700
C532        C  0.25034939  0.92818464  0.37978501    -0.05500
C533        C  0.22737526  0.94530305  0.37980214    -0.16200
C534        C  0.20372407  0.93760751  0.36515441     0.02700
C535        C  0.22512767  0.86981466  0.33508433     0.12600
C536        C  0.27619282  0.88592556  0.36462681     0.63300
H537        H  0.26833421  0.93474984  0.39078579     0.12700
C538        C  0.17852478  0.95564558  0.36459296     0.55400
H539        H  0.18604094  0.90643792  0.33946611     0.08500
C540        C  0.21211941  0.84647934  0.34556430    -0.05400
C541        C  0.20958033  0.82342645  0.32871742    -0.06100
C542        C  0.21882611  0.82325900  0.30157871    -0.15700
C543        C  0.23251812  0.84653349  0.29135405    -0.01300
C544        C  0.23530036  0.86948668  0.30841174    -0.08800
C545        C  0.19984501  0.84636219  0.37397960     0.65500
H546        H  0.19901481  0.80570810  0.33631283     0.10900
C547        C  0.24442287  0.84731800  0.26280625     0.63900
H548        H  0.24488945  0.88776477  0.30082676     0.08300
F549        F  0.15732158  0.94368527  0.35032003    -0.19200
F550        F  0.18452859  0.98009346  0.35219607    -0.15400
F551        F  0.16971991  0.96060144  0.39090363    -0.18900
F552        F  0.28576356  0.88382589  0.33822762    -0.22300
F553        F  0.27054529  0.86017690  0.37425311    -0.23800
F554        F  0.29675430  0.89687380  0.38055499    -0.17800
F555        F  0.26085323  0.86984270  0.25906173    -0.20200
F556        F  0.22365419  0.84848938  0.24377750    -0.21400
F557        F  0.26021608  0.82436136  0.25821914    -0.18600
F558        F  0.19067263  0.82078307  0.38119904    -0.18700
F559        F  0.17794665  0.86412991  0.37498125    -0.22500
F560        F  0.21904014  0.85435291  0.39299496    -0.24100
C561        C  0.25756105  0.07132855  0.33783251    -0.10900
C562        C  0.23196734  0.07859721  0.32724051     0.11700
C563        C  0.20790511  0.07028087  0.34079670    -0.02700
C564        C  0.21037770  0.05375526  0.36392127    -0.05500
C565        C  0.23587934  0.04484503  0.37327856    -0.16200
C566        C  0.25996161  0.05473871  0.36098322     0.02700
C567        C  0.23074621  0.09141110  0.29997634     0.12600
C568        C  0.17970532  0.07717332  0.32984088     0.63300
H569        H  0.19226939  0.04570848  0.37357863     0.12700
C570        C  0.28841438  0.04765453  0.37086938     0.55400
H571        H  0.27582848  0.07779689  0.32728380     0.08500
C572        C  0.23028460  0.11990276  0.29620217    -0.05400
C573        C  0.22540190  0.13010362  0.26980968    -0.06100
C574        C  0.22299196  0.11262556  0.24718693    -0.15700
C575        C  0.22561733  0.08410817  0.25088666    -0.01300
C576        C  0.22913039  0.07401824  0.27738270    -0.08800
C577        C  0.23624995  0.13919838  0.31966872     0.65500
H578        H  0.22398177  0.15183497  0.26651714     0.10900
C579        C  0.22405404  0.06430545  0.22711658     0.63900
H580        H  0.23024246  0.05228714  0.28084653     0.08300
F581        F  0.30330141  0.07131464  0.37410583    -0.19200
F582        F  0.30121397  0.03131701  0.35173954    -0.15400
F583        F  0.28838667  0.03427581  0.39557652    -0.18900
F584        F  0.17613175  0.06523778  0.30456037    -0.22300
F585        F  0.17670728  0.10500191  0.32741276    -0.23800
F586        F  0.15923418  0.06793156  0.34683249    -0.17800
F587        F  0.22520920  0.03747802  0.23556004    -0.20200
F588        F  0.24580385  0.06863937  0.20982039    -0.21400
F589        F  0.19985567  0.06801588  0.21308568    -0.18600
F590        F  0.23326506  0.16612804  0.31206831    -0.18700
F591        F  0.26283276  0.13525849  0.32826338    -0.22500
F592        F  0.21891143  0.13444303  0.34128007    -0.24100
C593        C  0.36121535  0.33498727  0.70988648    -0.10900
C594        C  0.35177834  0.32236483  0.68604824     0.11700
C595        C  0.35553532  0.33526625  0.66062106    -0.02700
C596        C  0.37239851  0.35842506  0.65946977    -0.05500
C597        C  0.38429449  0.36930774  0.68311010    -0.16200
C598        C  0.37749721  0.35840685  0.70886916     0.02700
C599        C  0.34033000  0.29453914  0.68859393     0.12600
C600        C  0.34173394  0.32461122  0.63507305     0.63300
H601        H  0.37754373  0.36735631  0.64002510     0.12700
C602        C  0.38861698  0.37070952  0.73504427     0.55400
H603        H  0.35724632  0.32523167  0.72921433     0.08500
C604        C  0.35755326  0.27135599  0.68868855    -0.05400
C605        C  0.34614777  0.24586503  0.69461883    -0.06100
C606        C  0.31844137  0.24278133  0.70153035    -0.15700
C607        C  0.30114726  0.26615990  0.70110488    -0.01300
C608        C  0.31252557  0.29164013  0.69441796    -0.08800
C609        C  0.38812536  0.27363247  0.68362730     0.65500
H610        H  0.35922440  0.22807281  0.69478320     0.10900
C611        C  0.27118512  0.26477675  0.70879012     0.63900
H612        H  0.30000063  0.30983377  0.69463185     0.08300
F613        F  0.41668207  0.36802900  0.73587215    -0.19200
F614        F  0.37802812  0.35815492  0.75787221    -0.15400
F615        F  0.38179886  0.39801174  0.73632694    -0.18900
F616        F  0.31378992  0.32481279  0.63884748    -0.22300
F617        F  0.35008816  0.29830415  0.62949975    -0.23800
F618        F  0.34759954  0.34051275  0.61264003    -0.17800
F619        F  0.25892445  0.29020311  0.70875041    -0.20200
F620        F  0.26849119  0.25414818  0.73468813    -0.21400
F621        F  0.25740507  0.24859351  0.69027623    -0.18600
F622        F  0.40109804  0.24861102  0.68509910    -0.18700
F623        F  0.39984299  0.29051621  0.70290624    -0.22500
F624        F  0.39291453  0.28417123  0.65806066    -0.24100
C625        C  0.23749706  0.12509248  0.60292236    -0.10900
C626        C  0.23882041  0.09716504  0.59760521     0.11700
C627        C  0.24749971  0.07911217  0.61823465    -0.02700
C628        C  0.25377232  0.08976127  0.64406677    -0.05500
C629        C  0.25258562  0.11788509  0.64984835    -0.16200
C630        C  0.24446059  0.13602151  0.62861388     0.02700
C631        C  0.23159198  0.08707288  0.57004192     0.12600
C632        C  0.25061991  0.04871350  0.61282304     0.63300
H633        H  0.26009915  0.07590906  0.65993999     0.12700
C634        C  0.24359979  0.16674417  0.63230072     0.55400
H635        H  0.23112536  0.13829355  0.58649010     0.08500
C636        C  0.20481002  0.07862167  0.56358564    -0.05400
C637        C  0.20083297  0.06256235  0.54016042    -0.06100
C638        C  0.22274120  0.05541105  0.52316176    -0.15700
C639        C  0.24863904  0.06735266  0.52753343    -0.01300
C640        C  0.25265121  0.08315136  0.55113085    -0.08800
C641        C  0.18089641  0.08577087  0.58190945     0.65500
H642        H  0.18112536  0.05343805  0.53625930     0.10900
C643        C  0.27227996  0.06192032  0.50826994     0.63900
H644        H  0.27275551  0.09079226  0.55608653     0.08300
F645        F  0.22457889  0.17367018  0.65194963    -0.19200
F646        F  0.23630616  0.17998817  0.60853515    -0.15400
F647        F  0.26909768  0.17610414  0.63986852    -0.18900
F648        F  0.26997322  0.04437994  0.59279234    -0.22300
F649        F  0.22607973  0.03781530  0.60434792    -0.23800
F650        F  0.25889214  0.03474997  0.63584044    -0.17800
F651        F  0.29555508  0.07577622  0.51610329    -0.20200
F652        F  0.26529372  0.07041268  0.48237062    -0.21400
F653        F  0.27839714  0.03442949  0.50759912    -0.18600
F654        F  0.15661769  0.07542877  0.57193244    -0.18700
F655        F  0.17836787  0.11375007  0.58363530    -0.22500
F656        F  0.18495135  0.07543001  0.60773325    -0.24100
C657        C  0.22629025  0.80680206  0.05017117    -0.10900
C658        C  0.24372850  0.80776033  0.07288732     0.11700
C659        C  0.26707511  0.82471629  0.07213610    -0.02700
C660        C  0.27088574  0.84171502  0.04950435    -0.05500
C661        C  0.25169346  0.84310389  0.02835606    -0.16200
C662        C  0.22919656  0.82511113  0.02832364     0.02700
C663        C  0.23498248  0.79422374  0.09862012     0.12600
C664        C  0.28709109  0.82606765  0.09575428     0.63300
H665        H  0.28789329  0.85571253  0.04906733     0.12700
C666        C  0.20719250  0.82692970  0.00662052     0.55400
H667        H  0.20899877  0.79318287  0.05083086     0.08500
C668        C  0.21355371  0.80514207  0.11473837    -0.05400
C669        C  0.20799996  0.79330012  0.14013691    -0.06100
C670        C  0.22357810  0.77161721  0.15058292    -0.15700
C671        C  0.24522810  0.76083437  0.13447100    -0.01300
C672        C  0.24986147  0.77181717  0.10832624    -0.08800
C673        C  0.19700931  0.82975734  0.10562539     0.65500
H674        H  0.19135478  0.80125186  0.15230256     0.10900
C675        C  0.26448548  0.73911087  0.14520413     0.63900
H676        H  0.26584995  0.76355636  0.09550874     0.08300
F677        F  0.18670302  0.80808310  0.01071887    -0.19200
F678        F  0.21838510  0.82214226  0.98122136    -0.15400
F679        F  0.19550581  0.85259925  0.00707071    -0.18900
F680        F  0.30004871  0.80124405  0.09868924    -0.22300
F681        F  0.27347070  0.83253624  0.11958705    -0.23800
F682        F  0.30697279  0.84555987  0.09168526    -0.17800
F683        F  0.25076883  0.71478819  0.14813982    -0.20200
F684        F  0.27497324  0.74721931  0.17010920    -0.21400
F685        F  0.28625848  0.73462862  0.12777625    -0.18600
F686        F  0.17912702  0.83861925  0.12561972    -0.18700
F687        F  0.18175891  0.82325223  0.08285503    -0.22500
F688        F  0.21425961  0.85108879  0.09955904    -0.24100
C689        C  0.23684685  0.01223602  0.09705985    -0.10900
C690        C  0.24213864  0.01608107  0.06926818     0.11700
C691        C  0.24108096  0.04256860  0.05810094    -0.02700
C692        C  0.23377161  0.06437448  0.07522611    -0.05500
C693        C  0.22795556  0.06047175  0.10288581    -0.16200
C694        C  0.23000251  0.03415336  0.11427364     0.02700
C695        C  0.24510655  0.99152857  0.05194078     0.12600
C696        C  0.24747503  0.04780082  0.02828955     0.63300
H697        H  0.23219943  0.08476842  0.06707905     0.12700
C698        C  0.22395532  0.02912323  0.14410376     0.55400
H699        H  0.23733088  0.99169665  0.10495823     0.08500
C700        C  0.26972964  0.97648444  0.05036223    -0.05400
C701        C  0.27007046  0.95240026  0.03483422    -0.06100
C702        C  0.24663007  0.94297410  0.02146333    -0.15700
C703        C  0.22204871  0.95796285  0.02301581    -0.01300
C704        C  0.22168689  0.98208779  0.03845719    -0.08800
C705        C  0.29524602  0.98537261  0.06549845     0.65500
H706        H  0.28852765  0.94028223  0.03347194     0.10900
C707        C  0.19634540  0.94819063  0.00885612     0.63900
H708        H  0.20296999  0.99371058  0.04046480     0.08300
F709        F  0.24219779  0.04347079  0.16001801    -0.19200
F710        F  0.22629395  0.00185771  0.15074598    -0.15400
F711        F  0.19767795  0.03754041  0.15010547    -0.18900
F712        F  0.22970289  0.03355137  0.01174593    -0.22300
F713        F  0.27384854  0.03963523  0.02257413    -0.23800
F714        F  0.24518573  0.07511540  0.02186212    -0.17800
F715        F  0.17446784  0.96547177  0.01358318    -0.20200
F716        F  0.18949901  0.92262231  0.01823513    -0.21400
F717        F  0.20067027  0.94689390  0.98106381    -0.18600
F718        F  0.31717813  0.96837523  0.06003531    -0.18700
F719        F  0.29056116  0.98497680  0.09323450    -0.22500
F720        F  0.30239533  0.01140808  0.05792183    -0.24100
C721        C  0.25237666  0.97983820  0.85903612    -0.10900
C722        C  0.27600281  0.98579396  0.84423593     0.11700
C723        C  0.29936282  0.96892477  0.84679131    -0.02700
C724        C  0.29783855  0.94585473  0.86363055    -0.05500
C725        C  0.27412338  0.93987019  0.87839700    -0.16200
C726        C  0.25095453  0.95705518  0.87614645     0.02700
C727        C  0.27607327  0.01109981  0.82788226     0.12600
C728        C  0.32581453  0.97551679  0.83216904     0.63300
H729        H  0.31517148  0.93225665  0.86548986     0.12700
C730        C  0.22472793  0.95123820  0.89149029     0.55400
H731        H  0.23505703  0.99345741  0.85720127     0.08500
C732        C  0.26588790  0.01214385  0.80096474    -0.05400
C733        C  0.26665537  0.03709790  0.78699880    -0.06100
C734        C  0.27576947  0.06121450  0.79959164    -0.15700
C735        C  0.28450475  0.06023331  0.82734172    -0.01300
C736        C  0.28482176  0.03496881  0.84070572    -0.08800
C737        C  0.25332761  0.98727974  0.78748205     0.65500
H738        H  0.25948763  0.03805941  0.76616587     0.10900
C739        C  0.29360261  0.08532905  0.84316088     0.63900
H740        H  0.29159663  0.03355664  0.86165569     0.08300
F741        F  0.20386643  0.96869456  0.88391241    -0.19200
F742        F  0.22903465  0.95444947  0.91913135    -0.15400
F743        F  0.21622783  0.92492904  0.88627497    -0.18900
F744        F  0.33575261  0.00015324  0.84144602    -0.22300
F745        F  0.32141183  0.97716926  0.80443384    -0.23800
F746        F  0.34561363  0.95586046  0.83660577    -0.17800
F747        F  0.27190802  0.10319315  0.84597640    -0.20200
F748        F  0.31483283  0.09797045  0.82974601    -0.21400
F749        F  0.30265504  0.07894159  0.86909640    -0.18600
F750        F  0.24589674  0.99232967  0.76076628    -0.18700
F751        F  0.23020057  0.97975876  0.80162151    -0.22500
F752        F  0.27158774  0.96580805  0.78746110    -0.24100
C753        C  0.37697235  0.16100484  0.06631247    -0.10900
C754        C  0.36935117  0.18362758  0.08211438     0.11700
C755        C  0.38569649  0.20730324  0.08189626    -0.21100
C756        C  0.40752929  0.20865965  0.06333022    -0.05500
C757        C  0.41327502  0.18707396  0.04541984    -0.16200
C758        C  0.39855340  0.16246202  0.04753151     0.02700
C759        C  0.34237554  0.18302998  0.09588324     0.12600
C760        C  0.37945870  0.23122431  0.10056038     0.63300
H761        H  0.41923927  0.22720242  0.06147131     0.12700
C762        C  0.40486655  0.13837978  0.02909445     0.55400
H763        H  0.36452130  0.14287670  0.06733108     0.08500
C764        C  0.31798699  0.18788338  0.08114521    -0.05400
C765        C  0.29288778  0.18567499  0.09475031    -0.06100
C766        C  0.29139969  0.17845657  0.12233967    -0.15700
C767        C  0.31590283  0.17500349  0.13742774    -0.01300
C768        C  0.34108738  0.17710673  0.12374894    -0.08800
C769        C  0.31843602  0.19467618  0.05094831     0.65500
H770        H  0.27406021  0.18822927  0.08347979     0.10900
C771        C  0.31559688  0.16984639  0.16789117     0.63900
H772        H  0.36001141  0.17363372  0.13460209     0.08300
F773        F  0.39881400  0.14478786  0.00237509    -0.19200
F774        F  0.38985086  0.11566784  0.03610207    -0.15400
F775        F  0.43223737  0.13177072  0.03108042    -0.18900
F776        F  0.38159369  0.22306328  0.12738536    -0.22300
F777        F  0.35330996  0.24075031  0.09586771    -0.23800
F778        F  0.39740101  0.25251913  0.09659423    -0.17800
F779        F  0.30677173  0.14371178  0.17309539    -0.20200
F780        F  0.29837400  0.18832695  0.18055821    -0.21400
F781        F  0.34129040  0.17273833  0.17924098    -0.18600
F782        F  0.29266349  0.20082023  0.04115700    -0.18700
F783        F  0.32833032  0.17271982  0.03625149    -0.22500
F784        F  0.33493895  0.21694630  0.04641485    -0.24100
C785        C  0.38122657  0.22096297  0.91900851    -0.10900
C786        C  0.38811258  0.20065842  0.90012931     0.11700
C787        C  0.41217277  0.18514215  0.90361482    -0.02700
C788        C  0.42717528  0.18864268  0.92767489    -0.05500
C789        C  0.41951528  0.20792770  0.94749771    -0.16200
C790        C  0.39701622  0.22545865  0.94243151     0.02700
C791        C  0.37001786  0.19629765  0.87654866     0.12600
C792        C  0.42196696  0.16512269  0.88198836     0.63300
H793        H  0.44458891  0.17561463  0.93161985     0.12700
C794        C  0.38907247  0.24941539  0.96038456     0.55400
H795        H  0.36335236  0.23349410  0.91532683     0.08500
C796        C  0.34820107  0.17762309  0.87746316    -0.05400
C797        C  0.33358436  0.17252312  0.85344026    -0.06100
C798        C  0.34011512  0.18551774  0.82885114    -0.15700
C799        C  0.36100473  0.20550409  0.82849511    -0.01300
C800        C  0.37556413  0.21056927  0.85261855    -0.08800
C801        C  0.34050684  0.16310666  0.90363252     0.65500
H802        H  0.31742521  0.15756058  0.85352796     0.10900
C803        C  0.36811793  0.22149924  0.80306518     0.63900
H804        H  0.39214304  0.22508190  0.85281838     0.08300
F805        F  0.38798303  0.27269749  0.94466976    -0.19200
F806        F  0.40733569  0.25414546  0.98130154    -0.15400
F807        F  0.36354127  0.24489009  0.97139978    -0.18900
F808        F  0.42737023  0.17893507  0.85814748    -0.22300
F809        F  0.40230285  0.14568564  0.87689719    -0.23800
F810        F  0.44561075  0.15180376  0.88984623    -0.17800
F811        F  0.34463952  0.23190711  0.79135684    -0.20200
F812        F  0.38139883  0.20479831  0.78457783    -0.21400
F813        F  0.38516653  0.24316031  0.80890748    -0.18600
F814        F  0.31872520  0.14562612  0.89983949    -0.18700
F815        F  0.33319413  0.18205237  0.92321438    -0.22500
F816        F  0.36228694  0.14797143  0.91316456    -0.24100
C817        C  0.60107950  0.16944293  0.07644118    -0.10900
C818        C  0.61149954  0.19519357  0.08280777     0.11700
C819        C  0.59768373  0.21894811  0.07405216    -0.02700
C820        C  0.57461012  0.21601308  0.05736710    -0.05500
C821        C  0.56578869  0.19025433  0.04891510    -0.16200
C822        C  0.57809601  0.16657044  0.05966713     0.02700
C823        C  0.63896843  0.19665822  0.09496534     0.12600
C824        C  0.60834659  0.24715194  0.08085046     0.63300
H825        H  0.56483704  0.23379256  0.04870880     0.12700
C826        C  0.56919571  0.13837147  0.05088472     0.55400
H827        H  0.61214566  0.15156164  0.08317034     0.08500
C828        C  0.64366702  0.19976927  0.12322598    -0.05400
C829        C  0.67041133  0.20459766  0.13210287    -0.06100
C830        C  0.69237539  0.20546443  0.11382445    -0.15700
C831        C  0.68791733  0.20030660  0.08575927    -0.01300
C832        C  0.66106596  0.19600085  0.07683075    -0.08800
C833        C  0.62158546  0.19842224  0.14481556     0.65500
H834        H  0.67415167  0.20818914  0.15359495     0.10900
C835        C  0.71107269  0.20052043  0.06516901     0.63900
H836        H  0.65688788  0.19296260  0.05536020     0.08300
F837        F  0.57695597  0.11906884  0.06984444    -0.19200
F838        F  0.58107948  0.13192754  0.02614546    -0.15400
F839        F  0.54111714  0.13726059  0.04827962    -0.18900
F840        F  0.63410117  0.25047647  0.06992128    -0.22300
F841        F  0.60969672  0.25046458  0.10876946    -0.23800
F842        F  0.59163844  0.26742545  0.07056293    -0.17800
F843        F  0.70171218  0.19722912  0.03875028    -0.20200
F844        F  0.72898439  0.17943197  0.07061083    -0.21400
F845        F  0.72485360  0.22500424  0.06655060    -0.18600
F846        F  0.62071986  0.22278543  0.15899859    -0.18700
F847        F  0.62784461  0.17775774  0.16282401    -0.22500
F848        F  0.59592450  0.19344565  0.13431035    -0.24100
C849        C  0.85457730  0.12362737  0.19873330    -0.10900
C850        C  0.83754192  0.10102686  0.19567815     0.11700
C851        C  0.80949116  0.10469164  0.19036328    -0.02700
C852        C  0.79985053  0.13120563  0.18549743    -0.05500
C853        C  0.81734759  0.15383510  0.18644254    -0.16200
C854        C  0.84508810  0.15016565  0.19402924     0.02700
C855        C  0.85059329  0.07390372  0.19645790     0.12600
C856        C  0.79003815  0.08073423  0.18992861     0.63300
H857        H  0.77862824  0.13442076  0.18022593     0.12700
C858        C  0.86509729  0.17369630  0.19564270     0.55400
H859        H  0.87585758  0.12004551  0.20354101     0.08500
C860        C  0.86359190  0.06295583  0.17308843    -0.05400
C861        C  0.87971736  0.03953376  0.17605546    -0.06100
C862        C  0.88506585  0.02838065  0.20178258    -0.15700
C863        C  0.87168422  0.03901449  0.22505091    -0.01300
C864        C  0.85387240  0.06129376  0.22180962    -0.08800
C865        C  0.86267300  0.07738603  0.14571878     0.65500
H866        H  0.89079044  0.03145868  0.15870128     0.10900
C867        C  0.87796625  0.02835963  0.25331212     0.63900
H868        H  0.84411380  0.07047710  0.23938680     0.08300
F869        F  0.89133756  0.16496758  0.20147274    -0.19200
F870        F  0.85723474  0.19154810  0.21604399    -0.15400
F871        F  0.86585385  0.18721560  0.17100924    -0.18900
F872        F  0.79009086  0.06838645  0.21516864    -0.22300
F873        F  0.79801173  0.06191064  0.17049530    -0.23800
F874        F  0.76358228  0.08875864  0.18407927    -0.17800
F875        F  0.90527205  0.03230522  0.25918671    -0.20200
F876        F  0.87215650  0.00090677  0.25453913    -0.21400
F877        F  0.86269709  0.04152005  0.27312293    -0.18600
F878        F  0.87541882  0.06235251  0.12545752    -0.18700
F879        F  0.87583106  0.10214824  0.14772900    -0.22500
F880        F  0.83600519  0.08181190  0.13776330    -0.24100
C881        C  0.70889450  0.33312618  0.31570124    -0.10900
C882        C  0.72774077  0.31169274  0.31658596     0.11700
C883        C  0.74225336  0.30643967  0.34097678    -0.02700
C884        C  0.73889598  0.32441649  0.36315487    -0.05500
C885        C  0.72176805  0.34731495  0.36134728    -0.16200
C886        C  0.70492434  0.35052104  0.33803315     0.02700
C887        C  0.73522166  0.29858454  0.29039651     0.12600
C888        C  0.76258830  0.28313927  0.34289986     0.63300
H889        H  0.75158871  0.32215020  0.38107194     0.12700
C890        C  0.68357137  0.37277267  0.33523850     0.55400
H891        H  0.69795467  0.33703218  0.29690607     0.08500
C892        C  0.71913294  0.27831575  0.27764354    -0.05400
C893        C  0.72748222  0.26812988  0.25204156    -0.06100
C894        C  0.75093107  0.27806148  0.23908065    -0.15700
C895        C  0.76620490  0.29920304  0.25138260    -0.01300
C896        C  0.75810212  0.30897871  0.27699004    -0.08800
C897        C  0.69323729  0.26786862  0.29086763     0.65500
H898        H  0.71578514  0.25240332  0.24191433     0.10900
C899        C  0.79032035  0.31217394  0.23700631     0.63900
H900        H  0.76945199  0.32518380  0.28677047     0.08300
F901        F  0.65979788  0.36184352  0.32473127    -0.19200
F902        F  0.69291508  0.39247204  0.31754496    -0.15400
F903        F  0.67719920  0.38479614  0.35995641    -0.18900
F904        F  0.78467739  0.28809967  0.32619936    -0.22300
F905        F  0.75041910  0.25907809  0.33491614    -0.23800
F906        F  0.77211882  0.27982345  0.36923088    -0.17800
F907        F  0.78256702  0.32055970  0.21126129    -0.20200
F908        F  0.81147358  0.29363019  0.23478345    -0.21400
F909        F  0.79994618  0.33469565  0.25099528    -0.18600
F910        F  0.68114213  0.24756158  0.27547285    -0.18700
F911        F  0.67463182  0.28888184  0.29370963    -0.22500
F912        F  0.69906240  0.25738602  0.31628585    -0.24100
C913        C  0.10267808  0.22190020  0.97560790    -0.10900
C914        C  0.09773640  0.20036440  0.99356953     0.11700
C915        C  0.07508620  0.18311206  0.98898003    -0.02700
C916        C  0.05934527  0.18679315  0.96526672    -0.05500
C917        C  0.06516170  0.20743227  0.94644193    -0.16200
C918        C  0.08634161  0.22617476  0.95239015     0.02700
C919        C  0.11702128  0.19572486  0.01658759     0.12600
C920        C  0.06794459  0.16056376  0.00878093     0.63300
H921        H  0.04294079  0.17280748  0.96065826     0.12700
C922        C  0.09256155  0.25063346  0.93474412     0.55400
H923        H  0.11965425  0.23539054  0.97970458     0.08500
C924        C  0.14130849  0.18033154  0.01317147    -0.05400
C925        C  0.15718533  0.17412051  0.03629959    -0.06100
C926        C  0.14987871  0.18352852  0.06230164    -0.15700
C927        C  0.12635785  0.20003381  0.06550773    -0.01300
C928        C  0.11027912  0.20596151  0.04245652    -0.08800
C929        C  0.15021996  0.17042349  0.98520126     0.65500
H930        H  0.17525201  0.16151319  0.03435111     0.10900
C931        C  0.11795471  0.21050466  0.09340700     0.63900
H932        H  0.09188150  0.21805689  0.04452955     0.08300
F933        F  0.09851425  0.27290036  0.95102978    -0.19200
F934        F  0.07074826  0.25778911  0.91836108    -0.15400
F935        F  0.11492542  0.24491522  0.91854445    -0.18900
F936        F  0.06170744  0.17168757  0.03392867    -0.22300
F937        F  0.08974152  0.14287475  0.01158751    -0.23800
F938        F  0.04563675  0.14567359  0.00006938    -0.17800
F939        F  0.09378214  0.22510949  0.09243449    -0.20200
F940        F  0.13805028  0.22736708  0.10366158    -0.21400
F941        F  0.11436196  0.18887623  0.11094357    -0.18600
F942        F  0.17404193  0.15527088  0.98642638    -0.18700
F943        F  0.15483853  0.19249505  0.96849525    -0.22500
F944        F  0.13018555  0.15431125  0.97371159    -0.24100
C945        C  0.09801515  0.20958123  0.80909356    -0.10900
C946        C  0.11605042  0.18747664  0.81149237     0.11700
C947        C  0.11025007  0.16651004  0.83033011    -0.02700
C948        C  0.08748552  0.16938465  0.84752335    -0.05500
C949        C  0.07060545  0.19249027  0.84662807    -0.16200
C950        C  0.07508263  0.21234477  0.82627953     0.02700
C951        C  0.14270961  0.18840237  0.79703001     0.12600
C952        C  0.12877479  0.14180018  0.83319801     0.63300
H953        H  0.08372733  0.15444514  0.86322084     0.12700
C954        C  0.05633942  0.23677832  0.82345421     0.55400
H955        H  0.10282580  0.22534235  0.79455022     0.08500
C956        C  0.14628613  0.17926963  0.76988235    -0.05400
C957        C  0.17305522  0.17663355  0.75958003    -0.06100
C958        C  0.19592858  0.18307062  0.77561605    -0.15700
C959        C  0.19200354  0.19486430  0.80178739    -0.01300
C960        C  0.16533875  0.19739712  0.81194879    -0.08800
C961        C  0.12198151  0.17222690  0.75211244     0.65500
H962        H  0.17635887  0.16837757  0.73936034     0.10900
C963        C  0.21574223  0.20435001  0.81932167     0.63900
H964        H  0.16201602  0.20510260  0.83239628     0.08300
F965        F  0.03016840  0.22805182  0.81775953    -0.19200
F966        F  0.05616604  0.25170121  0.84739209    -0.15400
F967        F  0.06447288  0.25373837  0.80255769    -0.18900
F968        F  0.15402072  0.14962300  0.84294379    -0.22300
F969        F  0.13206076  0.12919503  0.80819571    -0.23800
F970        F  0.11813004  0.12288832  0.85105348    -0.17800
F971        F  0.23409115  0.21889175  0.80375539    -0.20200
F972        F  0.22880319  0.18215154  0.83069384    -0.21400
F973        F  0.20704919  0.22113962  0.84032961    -0.18600
F974        F  0.12993409  0.16329152  0.72653394    -0.18700
F975        F  0.10576623  0.19505233  0.74886080    -0.22500
F976        F  0.10675863  0.15192473  0.76408306    -0.24100
C977        C  0.87341362  0.18183154  0.04141781    -0.10900
C978        C  0.87065407  0.19493453  0.01624559     0.11700
C979        C  0.84956112  0.21432341  0.01244527    -0.02700
C980        C  0.83275555  0.22113122  0.03463573    -0.05500
C981        C  0.83593658  0.20865997  0.06004058    -0.16200
C982        C  0.85637564  0.18845751  0.06361374     0.02700
C983        C  0.89058806  0.18886903  0.99425831     0.12600
C984        C  0.84487227  0.22775244  0.98502345     0.63300
H985        H  0.81695611  0.23642593  0.03238871     0.12700
C986        C  0.86098532  0.17493675  0.09100836     0.55400
H987        H  0.88947011  0.16681383  0.04366441     0.08500
C988        C  0.91554437  0.20307124  0.99221443    -0.05400
C989        C  0.93091728  0.20034615  0.96817283    -0.06100
C990        C  0.92258527  0.18317430  0.94673464    -0.15700
C991        C  0.89955268  0.16615083  0.95066218    -0.01300
C992        C  0.88351061  0.16990009  0.97411588    -0.08800
C993        C  0.92540505  0.22161462  0.01498821     0.65500
H994        H  0.94882103  0.21285174  0.96535503     0.10900
C995        C  0.89103985  0.14373537  0.93112214     0.63900
H996        H  0.86494104  0.15823384  0.97652383     0.08300
F997        F  0.88321925  0.15748210  0.09053450    -0.19200
F998        F  0.83827124  0.15997242  0.09809704    -0.15400
F999        F  0.86570468  0.19455444  0.11072641    -0.18900
F1000       F  0.83830702  0.20817755  0.96583347    -0.22300
F1001       F  0.86816135  0.24119152  0.97682863    -0.23800
F1002       F  0.82373225  0.24648502  0.98596651    -0.17800
F1003       F  0.88739696  0.11986765  0.94549410    -0.20200
F1004       F  0.91023646  0.13856335  0.91114509    -0.21400
F1005       F  0.86660344  0.15078682  0.91890964    -0.18600
F1006       F  0.95047507  0.23303789  0.00907942    -0.18700
F1007       F  0.92818367  0.20685017  0.03873383    -0.22500
F1008       F  0.90689322  0.24248209  0.01923805    -0.24100
C1009       C  0.77271884  0.53762180  0.33850529    -0.10900
C1010       C  0.75711034  0.51693710  0.32680489     0.11700
C1011       C  0.74467130  0.52102041  0.30112255    -0.02700
C1012       C  0.75031562  0.54517054  0.28686494    -0.05500
C1013       C  0.76735552  0.56541673  0.29785589    -0.16200
C1014       C  0.77788949  0.56204499  0.32474806     0.02700
C1015       C  0.75371009  0.49152980  0.34259382     0.12600
C1016       C  0.72552477  0.49998847  0.28896842     0.63300
H1017       H  0.74180288  0.54816706  0.26674583     0.12700
C1018       C  0.79405958  0.58402967  0.33949534     0.55400
H1019       H  0.78118245  0.53421222  0.35859510     0.08500
C1020       C  0.77338916  0.47038470  0.34188011    -0.05400
C1021       C  0.76866919  0.44678453  0.35724654    -0.06100
C1022       C  0.74559079  0.44429307  0.37393288    -0.15700
C1023       C  0.72661570  0.46610914  0.37568409    -0.01300
C1024       C  0.73108139  0.48944673  0.35983882    -0.08800
C1025       C  0.79942018  0.47298483  0.32534483     0.65500
H1026       H  0.78293177  0.42992202  0.35631326     0.10900
C1027       C  0.70147719  0.46461200  0.39366813     0.63900
H1028       H  0.71687017  0.50635676  0.36066286     0.08300
F1029       F  0.79712533  0.57833370  0.36692450    -0.19200
F1030       F  0.78064919  0.60877122  0.33753403    -0.15400
F1031       F  0.81986970  0.58606170  0.32836033    -0.18900
F1032       F  0.70368225  0.49601741  0.30627134    -0.22300
F1033       F  0.73911819  0.47556419  0.28532187    -0.23800
F1034       F  0.71531202  0.50811929  0.26398660    -0.17800
F1035       F  0.68490364  0.48729358  0.39076501    -0.20200
F1036       F  0.70921677  0.46314150  0.42067929    -0.21400
F1037       F  0.68629355  0.44190148  0.38693924    -0.18600
F1038       F  0.81513493  0.44955120  0.32644460    -0.18700
F1039       F  0.81484655  0.49423385  0.33548120    -0.22500
F1040       F  0.79327865  0.47800560  0.29835583    -0.24100
C1041       C  0.81785970  0.79498402  0.20305680    -0.10900
C1042       C  0.84458849  0.80002829  0.21190827     0.11700
C1043       C  0.86059216  0.77859988  0.22281648    -0.02700
C1044       C  0.84924239  0.75249251  0.22412215    -0.05500
C1045       C  0.82240449  0.74754923  0.21580548    -0.16200
C1046       C  0.80633702  0.76886933  0.20502148     0.02700
C1047       C  0.85576590  0.82782779  0.20943877     0.12600
C1048       C  0.88917941  0.78343156  0.23387694     0.63300
H1049       H  0.86086100  0.73584741  0.23279440     0.12700
C1050       C  0.77733567  0.76383816  0.19560021     0.55400
H1051       H  0.80604790  0.81174309  0.19490938     0.08500
C1052       C  0.86979319  0.83608560  0.18574256    -0.05400
C1053       C  0.88546259  0.85993356  0.18690869    -0.06100
C1054       C  0.88709741  0.87546721  0.21086837    -0.15700
C1055       C  0.87063034  0.86882305  0.23349848    -0.01300
C1056       C  0.85494501  0.84495521  0.23234510    -0.08800
C1057       C  0.86906921  0.81909112  0.15985435     0.65500
H1058       H  0.89822852  0.86552019  0.16984354     0.10900
C1059       C  0.87081272  0.88624789  0.25909240     0.63900
H1060       H  0.84344015  0.83847512  0.24997287     0.08300
F1061       F  0.76605474  0.78665142  0.18350380    -0.19200
F1062       F  0.76128099  0.75686219  0.21760767    -0.15400
F1063       F  0.77704661  0.74282424  0.17676356    -0.18900
F1064       F  0.88789139  0.80075763  0.25609366    -0.22300
F1065       F  0.90551002  0.79492661  0.21413575    -0.23800
F1066       F  0.90151570  0.75946672  0.24217757    -0.17800
F1067       F  0.85276319  0.87669096  0.27846233    -0.20200
F1068       F  0.86331819  0.91258481  0.25259082    -0.21400
F1069       F  0.89662949  0.88646553  0.27045603    -0.18600
F1070       F  0.88415498  0.83078147  0.13919620    -0.18700
F1071       F  0.84241746  0.81670991  0.15097337    -0.22500
F1072       F  0.87955414  0.79340641  0.16466331    -0.24100
C1073       C  0.12151558  0.33431998  0.22049430    -0.10900
C1074       C  0.12888366  0.32281379  0.19529236     0.11700
C1075       C  0.11967995  0.33516830  0.17083443    -0.02700
C1076       C  0.10250310  0.35800790  0.17262738    -0.05500
C1077       C  0.09350312  0.36817752  0.19775487    -0.16200
C1078       C  0.10358883  0.35674398  0.22213039     0.02700
C1079       C  0.14172586  0.29543930  0.19543224     0.12600
C1080       C  0.12562852  0.32442347  0.14235571     0.63300
H1081       H  0.09419889  0.36668084  0.15409098     0.12700
C1082       C  0.09427842  0.36749509  0.24959325     0.55400
H1083       H  0.12848362  0.32443776  0.23891708     0.08500
C1084       C  0.17015841  0.29138543  0.19300625    -0.05400
C1085       C  0.18007875  0.26471593  0.18898306    -0.06100
C1086       C  0.16247721  0.24217158  0.18850528    -0.15700
C1087       C  0.13418282  0.24622030  0.19364426    -0.01300
C1088       C  0.12433071  0.27296506  0.19667292    -0.08800
C1089       C  0.18961070  0.31525137  0.19403054     0.65500
H1090       H  0.20164332  0.26131929  0.18552906     0.10900
C1091       C  0.11415009  0.22272543  0.19484666     0.63900
H1092       H  0.10269836  0.27672458  0.19927047     0.08300
F1093       F  0.10708503  0.35419947  0.27087925    -0.19200
F1094       F  0.06644778  0.36398078  0.25237664    -0.15400
F1095       F  0.10024077  0.39491203  0.25155966    -0.18900
F1096       F  0.10134748  0.31719798  0.12995235    -0.22300
F1097       F  0.14272664  0.30204599  0.14187820    -0.23800
F1098       F  0.13773131  0.34475621  0.12723903    -0.17800
F1099       F  0.12073068  0.20595830  0.21643458    -0.20200
F1100       F  0.11504345  0.20802259  0.17078598    -0.21400
F1101       F  0.08757092  0.23159599  0.19863614    -0.18600
F1102       F  0.21657357  0.30685226  0.19294689    -0.18700
F1103       F  0.18580101  0.32956295  0.21805349    -0.22500
F1104       F  0.18472873  0.33235684  0.17228425    -0.24100
C1105       C  0.90034813  0.33752269  0.16261350    -0.10900
C1106       C  0.92203481  0.32433597  0.17558516     0.11700
C1107       C  0.91883014  0.29743912  0.18519787    -0.02700
C1108       C  0.89403503  0.28402915  0.18008305    -0.05500
C1109       C  0.87260248  0.29682844  0.16599605    -0.16200
C1110       C  0.87550414  0.32432706  0.15763056     0.02700
C1111       C  0.94755723  0.33985241  0.17935351     0.12600
C1112       C  0.94145201  0.28306852  0.20073595     0.63300
H1113       H  0.89133412  0.26323204  0.18673335     0.12700
C1114       C  0.85241412  0.34016958  0.14427991     0.55400
H1115       H  0.90323250  0.35837352  0.15619581     0.08500
C1116       C  0.96649858  0.34331644  0.15788606    -0.05400
C1117       C  0.98968389  0.35933774  0.16265412    -0.06100
C1118       C  0.99411497  0.37198631  0.18788647    -0.15700
C1119       C  0.97524729  0.36847808  0.20934015    -0.01300
C1120       C  0.95193546  0.35263409  0.20454002    -0.08800
C1121       C  0.96209293  0.33047126  0.13003370     0.65500
H1122       H  0.00461729  0.36222973  0.14668020     0.10900
C1123       C  0.98004366  0.38101252  0.23720770     0.63900
H1124       H  0.93685386  0.35005076  0.22042050     0.08300
F1125       F  0.84785155  0.33044250  0.11821734    -0.19200
F1126       F  0.85835395  0.36760749  0.14228546    -0.15400
F1127       F  0.82886814  0.33772159  0.15958091    -0.18900
F1128       F  0.94653939  0.29671136  0.22487383    -0.22300
F1129       F  0.96503080  0.28245016  0.18532224    -0.23800
F1130       F  0.93458915  0.25652361  0.20701228    -0.17800
F1131       F  0.98075964  0.40903437  0.23510556    -0.20200
F1132       F  0.00460153  0.37181883  0.24762244    -0.21400
F1133       F  0.95965039  0.37424648  0.25543390    -0.18600
F1134       F  0.98438803  0.33410770  0.11315321    -0.18700
F1135       F  0.93963934  0.34218710  0.11766069    -0.22500
F1136       F  0.95780126  0.30282115  0.13260116    -0.24100
C1137       C  0.12329339  0.55585530  0.16704519    -0.10900
C1138       C  0.12988642  0.56559385  0.19313107     0.11700
C1139       C  0.12087051  0.55114337  0.21640026    -0.02700
C1140       C  0.10505869  0.52770349  0.21251439    -0.05500
C1141       C  0.09632942  0.51956184  0.18655494    -0.16200
C1142       C  0.10623147  0.53326421  0.16330633     0.02700
C1143       C  0.14092406  0.59351969  0.19495567     0.12600
C1144       C  0.12498751  0.56044539  0.24569100     0.63300
H1145       H  0.09681081  0.51743698  0.23019522     0.12700
C1146       C  0.09777724  0.52626983  0.13440156     0.55400
H1147       H  0.12984663  0.56730376  0.14939956     0.08500
C1148       C  0.16882768  0.59908159  0.19925586    -0.05400
C1149       C  0.17682883  0.62630381  0.20324583    -0.06100
C1150       C  0.15775930  0.64784880  0.20287458    -0.15700
C1151       C  0.13013292  0.64218048  0.19591135    -0.01300
C1152       C  0.12227261  0.61496363  0.19238782    -0.08800
C1153       C  0.18970824  0.57625905  0.20046973     0.65500
H1154       H  0.19790518  0.63073023  0.20807375     0.10900
C1155       C  0.10870627  0.66433645  0.19220096     0.63900
H1156       H  0.10110978  0.61004717  0.18837775     0.08300
F1157       F  0.12081895  0.52320815  0.11842238    -0.19200
F1158       F  0.08209063  0.54727876  0.12406635    -0.15400
F1159       F  0.08298332  0.50243680  0.13266034    -0.18900
F1160       F  0.09978899  0.56516358  0.25750999    -0.22300
F1161       F  0.14014119  0.58394044  0.24820975    -0.23800
F1162       F  0.13814224  0.54009150  0.26003193    -0.17800
F1163       F  0.11911355  0.68520069  0.17654604    -0.20200
F1164       F  0.10063297  0.67439696  0.21728746    -0.21400
F1165       F  0.08571015  0.65455554  0.17905793    -0.18600
F1166       F  0.21600799  0.58612315  0.20297452    -0.18700
F1167       F  0.18834822  0.56080891  0.17690810    -0.22500
F1168       F  0.18449670  0.55976393  0.22256628    -0.24100
C1169       C  0.90180494  0.55895933  0.20826070    -0.10900
C1170       C  0.92643710  0.57204691  0.20261280     0.11700
C1171       C  0.92715080  0.60077060  0.20038368    -0.02700
C1172       C  0.90313220  0.61567389  0.20579140    -0.05500
C1173       C  0.87893544  0.60258504  0.21336089    -0.16200
C1174       C  0.87789898  0.57375393  0.21380142     0.02700
C1175       C  0.95113049  0.55483193  0.19960512     0.12600
C1176       C  0.95324034  0.61551149  0.19288017     0.63300
H1177       H  0.90331924  0.63769959  0.20520667     0.12700
C1178       C  0.85163216  0.55860407  0.21985017     0.55400
H1179       H  0.90171563  0.53693760  0.20912925     0.08500
C1180       C  0.96597358  0.54559314  0.22256565    -0.05400
C1181       C  0.98880733  0.52873579  0.21833320    -0.06100
C1182       C  0.99665514  0.52056309  0.19211852    -0.15700
C1183       C  0.98157810  0.52937491  0.16920671    -0.01300
C1184       C  0.95880269  0.54637825  0.17338242    -0.08800
C1185       C  0.95728509  0.55284926  0.25140542     0.65500
H1186       H  0.00074122  0.52164835  0.23548549     0.10900
C1187       C  0.98964480  0.52078632  0.14060645     0.63900
H1188       H  0.94677201  0.55328053  0.15622385     0.08300
F1189       F  0.84462380  0.56195012  0.24692168    -0.19200
F1190       F  0.85421764  0.53097870  0.21478208    -0.15400
F1191       F  0.83081004  0.56846725  0.20357495    -0.18900
F1192       F  0.96238845  0.60653169  0.16777381    -0.22300
F1193       F  0.97315726  0.61051047  0.21217004    -0.23800
F1194       F  0.94931442  0.64337751  0.19138910    -0.17800
F1195       F  0.98984228  0.49270293  0.13871883    -0.20200
F1196       F  0.01538439  0.53050467  0.13466479    -0.21400
F1197       F  0.97168654  0.53073675  0.12125308    -0.18600
F1198       F  0.97613889  0.54407509  0.27048029    -0.18700
F1199       F  0.93259223  0.54065012  0.25708245    -0.22500
F1200       F  0.95449350  0.58070376  0.25426560    -0.24100
C1201       C  0.25448053  0.86488757  0.56049892    -0.10900
C1202       C  0.24351087  0.88598423  0.57625772     0.11700
C1203       C  0.23786330  0.88193605  0.60413538    -0.02700
C1204       C  0.24517193  0.85690350  0.61583934    -0.05500
C1205       C  0.25688873  0.83582976  0.60023223    -0.16200
C1206       C  0.26140420  0.83971549  0.57189176     0.02700
C1207       C  0.23821568  0.91194678  0.56230134     0.12600
C1208       C  0.22363654  0.90362766  0.62113543     0.63300
H1209       H  0.24148255  0.85346044  0.63729094     0.12700
C1210       C  0.27419098  0.81802050  0.55365906     0.55400
H1211       H  0.25787348  0.86858548  0.53903242     0.08500
C1212       C  0.25952110  0.93058085  0.55708135    -0.05400
C1213       C  0.25409353  0.95279462  0.54007101    -0.06100
C1214       C  0.22832834  0.95657844  0.52831369    -0.15700
C1215       C  0.20677760  0.93861605  0.53439708    -0.01300
C1216       C  0.21222252  0.91618453  0.55116372    -0.08800
C1217       C  0.28792079  0.92674291  0.56898738     0.65500
H1218       H  0.27001354  0.96729468  0.53547173     0.10900
C1219       C  0.17826906  0.94338933  0.52336027     0.63900
H1220       H  0.19641471  0.90142567  0.55527791     0.08300
F1221       F  0.27944094  0.82767484  0.52774181    -0.19200
F1222       F  0.25663845  0.79619902  0.55105169    -0.15400
F1223       F  0.29871464  0.80933749  0.56461869    -0.18900
F1224       F  0.19767819  0.90800136  0.61102045    -0.22300
F1225       F  0.23795796  0.92776058  0.62025753    -0.23800
F1226       F  0.22134496  0.89599597  0.64814376    -0.17800
F1227       F  0.17867013  0.94239902  0.49522412    -0.20200
F1228       F  0.16895112  0.96867907  0.53171702    -0.21400
F1229       F  0.16006250  0.92400668  0.53251026    -0.18600
F1230       F  0.30495359  0.94820055  0.56262663    -0.18700
F1231       F  0.29956231  0.90314380  0.55885056    -0.22500
F1232       F  0.28649347  0.92502680  0.59702393    -0.24100
C1233       C  0.31103204  0.60581232  0.69504381    -0.10900
C1234       C  0.33865982  0.59969015  0.69117291     0.11700
C1235       C  0.35702073  0.62050493  0.68380012    -0.02700
C1236       C  0.34679515  0.64688632  0.67989588    -0.05500
C1237       C  0.31883363  0.65323003  0.68255971    -0.16200
C1238       C  0.30062747  0.63233619  0.69111970     0.02700
C1239       C  0.34817012  0.57121706  0.69441622     0.12600
C1240       C  0.38727392  0.61477138  0.67939054     0.63300
H1241       H  0.36081953  0.66273988  0.67399187     0.12700
C1242       C  0.27042796  0.63745467  0.69595482     0.55400
H1243       H  0.29762331  0.58939069  0.70088913     0.08500
C1244       C  0.35727769  0.56119294  0.71979902    -0.05400
C1245       C  0.37252845  0.53688974  0.72019588    -0.06100
C1246       C  0.37879080  0.52275729  0.69605408    -0.15700
C1247       C  0.36706384  0.53130696  0.67112568    -0.01300
C1248       C  0.35146713  0.55536907  0.67083999    -0.08800
C1249       C  0.35184738  0.57676693  0.74603536     0.65500
H1250       H  0.38173791  0.53000345  0.73901344     0.10900
C1251       C  0.37272538  0.51617910  0.64466865     0.63900
H1252       H  0.34368939  0.56326602  0.65178283     0.08300
F1253       F  0.26714822  0.65690240  0.71615609    -0.19200
F1254       F  0.25702430  0.61419826  0.70432212    -0.15400
F1255       F  0.25814281  0.64617178  0.67215992    -0.18900
F1256       F  0.39064460  0.59730743  0.65750400    -0.22300
F1257       F  0.39850776  0.60299198  0.70232956    -0.23800
F1258       F  0.40175256  0.63827948  0.67402643    -0.17800
F1259       F  0.35938864  0.52795216  0.62280440    -0.20200
F1260       F  0.36388443  0.48961155  0.64687165    -0.21400
F1261       F  0.40037012  0.51620151  0.63913415    -0.18600
F1262       F  0.36343769  0.56402490  0.76832750    -0.18700
F1263       F  0.32402736  0.57856306  0.75027756    -0.22500
F1264       F  0.36247191  0.60273458  0.74452284    -0.24100
C1265       C  0.26341236  0.81622904  0.77905058    -0.10900
C1266       C  0.26382347  0.79690698  0.79985299     0.11700
C1267       C  0.26208545  0.76896856  0.79328319    -0.02700
C1268       C  0.26274593  0.76112610  0.76558383    -0.05500
C1269       C  0.26441362  0.78046452  0.74451875    -0.16200
C1270       C  0.26352545  0.80870594  0.75143957     0.02700
C1271       C  0.26569862  0.80737730  0.82819561     0.12600
C1272       C  0.25933740  0.74776498  0.81546507     0.63300
H1273       H  0.26270847  0.73972907  0.76026626     0.12700
C1274       C  0.26278457  0.83122081  0.73022528     0.55400
H1275       H  0.26382596  0.83754433  0.78478176     0.08500
C1276       C  0.29090357  0.81617169  0.83927581    -0.05400
C1277       C  0.29059095  0.83212043  0.86308901    -0.06100
C1278       C  0.26603904  0.84023117  0.87534638    -0.15700
C1279       C  0.24104071  0.82976812  0.86553375    -0.01300
C1280       C  0.24130922  0.81329066  0.84200018    -0.08800
C1281       C  0.31787026  0.81043846  0.82503095     0.65500
H1282       H  0.30941044  0.84064283  0.87088027     0.10900
C1283       C  0.21419730  0.83735247  0.87897119     0.63900
H1284       H  0.22229539  0.80656070  0.83302711     0.08300
F1285       F  0.25576449  0.85610774  0.74160896    -0.19200
F1286       F  0.24358404  0.82531880  0.71041106    -0.15400
F1287       F  0.28822018  0.83401158  0.71840433    -0.18900
F1288       F  0.23581940  0.75268176  0.83023271    -0.22300
F1289       F  0.28146361  0.74887929  0.83286392    -0.23800
F1290       F  0.25784297  0.72169434  0.80481727    -0.17800
F1291       F  0.21019765  0.86518688  0.87779067    -0.20200
F1292       F  0.21461321  0.82931616  0.90591227    -0.21400
F1293       F  0.19227270  0.82484437  0.86637772    -0.18600
F1294       F  0.33986463  0.81987263  0.84000886    -0.18700
F1295       F  0.31834450  0.82308087  0.79995778    -0.22500
F1296       F  0.32127001  0.78277340  0.82130432    -0.24100
C1297       C  0.58270423  0.17258213  0.90591730    -0.10900
C1298       C  0.59831253  0.19627047  0.90279597     0.11700
C1299       C  0.59828619  0.21631754  0.92360714    -0.02700
C1300       C  0.58156291  0.21248034  0.94642092    -0.05500
C1301       C  0.56546143  0.18913755  0.94934170    -0.16200
C1302       C  0.56673507  0.16831323  0.92938452     0.02700
C1303       C  0.61298280  0.20088720  0.87679909     0.12600
C1304       C  0.61554230  0.24188631  0.92159700     0.63300
H1305       H  0.58072560  0.22789776  0.96224484     0.12700
C1306       C  0.55210138  0.14149513  0.93335954     0.55400
H1307       H  0.58298172  0.15755993  0.88972203     0.08500
C1308       C  0.63886585  0.18942673  0.87107875    -0.05400
C1309       C  0.65293601  0.19818618  0.84769002    -0.06100
C1310       C  0.64192770  0.21799927  0.83013363    -0.15700
C1311       C  0.61509408  0.22810439  0.83521390    -0.01300
C1312       C  0.60112266  0.21903098  0.85839538    -0.08800
C1313       C  0.65163691  0.16843663  0.88982010     0.65500
H1314       H  0.67305906  0.19011431  0.84337475     0.10900
C1315       C  0.60090953  0.24845735  0.81665889     0.63900
H1316       H  0.58104259  0.22701075  0.86313566     0.08300
F1317       F  0.55957532  0.13033276  0.95809769    -0.19200
F1318       F  0.55856788  0.12290912  0.91308186    -0.15400
F1319       F  0.52421554  0.14560031  0.93301408    -0.18900
F1320       F  0.60522366  0.25869174  0.90156459    -0.22300
F1321       F  0.64221721  0.23513461  0.91531264    -0.23800
F1322       F  0.61579757  0.25634499  0.94586059    -0.17800
F1323       F  0.60196745  0.23947953  0.78993347    -0.20200
F1324       F  0.61336955  0.27357131  0.81890006    -0.21400
F1325       F  0.57369129  0.25190932  0.82340918    -0.18600
F1326       F  0.67716194  0.16028029  0.88083005    -0.18700
F1327       F  0.63522359  0.14566615  0.89095207    -0.22500
F1328       F  0.65446237  0.17914360  0.91574747    -0.24100
C1329       C  0.52602024  0.35560001  0.67309883    -0.10900
C1330       C  0.53095241  0.34588273  0.69950126     0.11700
C1331       C  0.51259375  0.35243037  0.72083092    -0.02700
C1332       C  0.48875604  0.36702529  0.71453920    -0.05500
C1333       C  0.48347563  0.37609679  0.68806077    -0.16200
C1334       C  0.50255042  0.37104375  0.66705827     0.02700
C1335       C  0.55601535  0.32964204  0.70447740     0.12600
C1336       C  0.51846716  0.34464978  0.75016764     0.63300
H1337       H  0.47402338  0.37172469  0.73031688     0.12700
C1338       C  0.49814252  0.38225557  0.63866490     0.55400
H1339       H  0.54080124  0.35105433  0.65732429     0.08500
C1340       C  0.55650547  0.30097869  0.70166348    -0.05400
C1341       C  0.58056811  0.28680488  0.70859702    -0.06100
C1342       C  0.60414837  0.30057261  0.71724743    -0.15700
C1343       C  0.60413610  0.32949318  0.71786118    -0.01300
C1344       C  0.57979475  0.34349047  0.71188305    -0.08800
C1345       C  0.53195997  0.28567767  0.69062182     0.65500
H1346       H  0.58113493  0.26480471  0.70737872     0.10900
C1347       C  0.62993951  0.34564648  0.72341814     0.63900
H1348       H  0.57904513  0.36549876  0.71299735     0.08300
F1349       F  0.47367469  0.37293153  0.62823792    -0.19200
F1350       F  0.51878678  0.37447151  0.62101710    -0.15400
F1351       F  0.49750625  0.41037706  0.63978695    -0.18900
F1352       F  0.54213645  0.35724025  0.75877486    -0.22300
F1353       F  0.52165202  0.31681359  0.75237535    -0.23800
F1354       F  0.49757877  0.35255964  0.76748347    -0.17800
F1355       F  0.62620637  0.37314587  0.71857968    -0.20200
F1356       F  0.65064260  0.33651779  0.70651459    -0.21400
F1357       F  0.63780006  0.34271335  0.75027636    -0.18600
F1358       F  0.53635342  0.25784515  0.69021506    -0.18700
F1359       F  0.52672119  0.29401299  0.66426925    -0.22500
F1360       F  0.50919567  0.29081539  0.70643626    -0.24100
C1361       C  0.70977091  0.30429752  0.54535243    -0.10900
C1362       C  0.73192938  0.30346383  0.56343834     0.11700
C1363       C  0.75720392  0.31479276  0.55555603    -0.02700
C1364       C  0.75844735  0.32971503  0.53120503    -0.05500
C1365       C  0.73519480  0.33380455  0.51500806    -0.16200
C1366       C  0.71088573  0.31965264  0.52121718     0.02700
C1367       C  0.72716374  0.29386797  0.59173378     0.12600
C1368       C  0.78228434  0.31230117  0.57353366     0.63300
H1369       H  0.77685000  0.34067600  0.52605150     0.12700
C1370       C  0.68579910  0.32228040  0.50327582     0.55400
H1371       H  0.69088643  0.29471726  0.55143541     0.08500
C1372       C  0.71633707  0.31158857  0.61193863    -0.05400
C1373       C  0.71350977  0.30193699  0.63870888    -0.06100
C1374       C  0.72027094  0.27512360  0.64559948    -0.15700
C1375       C  0.73028223  0.25714500  0.62529066    -0.01300
C1376       C  0.73384326  0.26696507  0.59856701    -0.08800
C1377       C  0.70742716  0.34046373  0.60517094     0.65500
H1378       H  0.70524395  0.31508897  0.65445341     0.10900
C1379       C  0.73733965  0.22788245  0.63200415     0.63900
H1380       H  0.74178182  0.25372868  0.58274039     0.08300
F1381       F  0.66439065  0.30665685  0.51273498    -0.19200
F1382       F  0.69206959  0.31364681  0.47717567    -0.15400
F1383       F  0.67716240  0.34908159  0.50243491    -0.18900
F1384       F  0.78890713  0.28513583  0.57668451    -0.22300
F1385       F  0.77726857  0.32368434  0.59884635    -0.23800
F1386       F  0.80459523  0.32535340  0.56238897    -0.17800
F1387       F  0.74755912  0.21401621  0.60959788    -0.20200
F1388       F  0.71426698  0.21445366  0.64082898    -0.21400
F1389       F  0.75684960  0.22730397  0.65235009    -0.18600
F1390       F  0.69795472  0.35428341  0.62792684    -0.18700
F1391       F  0.68657309  0.33984939  0.58621847    -0.22500
F1392       F  0.72909616  0.35491672  0.59464236    -0.24100
C1393       C  0.81763231  0.20923892  0.81694169    -0.10900
C1394       C  0.84106583  0.21272367  0.80105006     0.11700
C1395       C  0.83832719  0.21737508  0.77277025    -0.02700
C1396       C  0.81194907  0.22112038  0.76180891    -0.05500
C1397       C  0.78834089  0.21880963  0.77794452    -0.16200
C1398       C  0.79121399  0.21192252  0.80596373     0.02700
C1399       C  0.86803140  0.21126250  0.81507461     0.12600
C1400       C  0.86313210  0.21791611  0.75431685     0.63300
H1401       H  0.80954270  0.22575097  0.74040065     0.12700
C1402       C  0.76676210  0.20803310  0.82461319     0.55400
H1403       H  0.82035076  0.20470233  0.83833960     0.08500
C1404       C  0.87834211  0.23342319  0.83048492    -0.05400
C1405       C  0.90166310  0.22934813  0.84682218    -0.06100
C1406       C  0.91485935  0.20397726  0.84817495    -0.15700
C1407       C  0.90558638  0.18239138  0.83126651    -0.01300
C1408       C  0.88205790  0.18636339  0.81530105    -0.08800
C1409       C  0.86411062  0.26093965  0.83049945     0.65500
H1410       H  0.90875657  0.24549282  0.86011204     0.10900
C1411       C  0.91899238  0.15454760  0.82979608     0.63900
H1412       H  0.87399723  0.16948151  0.80354052     0.08300
F1413       F  0.77450545  0.20368181  0.85136440    -0.19200
F1414       F  0.75197502  0.18561290  0.81617557    -0.15400
F1415       F  0.75026231  0.23090457  0.82416584    -0.18900
F1416       F  0.87619035  0.19295204  0.75511273    -0.22300
F1417       F  0.88105455  0.23785462  0.76283279    -0.23800
F1418       F  0.85609148  0.22309717  0.72752682    -0.17800
F1419       F  0.90094209  0.13514384  0.83910181    -0.20200
F1420       F  0.94270290  0.15270867  0.84487991    -0.21400
F1421       F  0.92544237  0.14874387  0.80295712    -0.18600
F1422       F  0.87837636  0.28008511  0.84552235    -0.18700
F1423       F  0.83835311  0.25864495  0.84165703    -0.22500
F1424       F  0.86179951  0.27042265  0.80414125    -0.24100
C1425       C  0.72916285  0.35445908  0.05787337    -0.10900
C1426       C  0.73510047  0.37984903  0.06956952     0.11700
C1427       C  0.74565330  0.38120107  0.09641416    -0.02700
C1428       C  0.75234809  0.35676944  0.10976841    -0.05500
C1429       C  0.74794581  0.33143264  0.09735026    -0.16200
C1430       C  0.73529362  0.33005523  0.07149570     0.02700
C1431       C  0.73187636  0.40454112  0.05249137     0.12600
C1432       C  0.74947608  0.40828521  0.11089981     0.63300
H1433       H  0.76143251  0.35723110  0.12988200     0.12700
C1434       C  0.72826700  0.30286285  0.05859617     0.55400
H1435       H  0.72042743  0.35395212  0.03761072     0.08500
C1436       C  0.75279700  0.41289350  0.03452369    -0.05400
C1437       C  0.74913006  0.43694420  0.01961205    -0.06100
C1438       C  0.72539860  0.45276039  0.02208359    -0.15700
C1439       C  0.70403776  0.44397577  0.03935735    -0.01300
C1440       C  0.70765691  0.41976237  0.05428827    -0.08800
C1441       C  0.77905547  0.39664261  0.03137495     0.65500
H1442       H  0.76515035  0.44404703  0.00625811     0.10900
C1443       C  0.67751145  0.45982770  0.04169435     0.63900
H1444       H  0.69180031  0.41271401  0.06785276     0.08300
F1445       F  0.75177563  0.28781876  0.05432314    -0.19200
F1446       F  0.71518565  0.30598532  0.03380295    -0.15400
F1447       F  0.71112571  0.28864096  0.07573860    -0.18900
F1448       F  0.72433855  0.42063626  0.11445269    -0.22300
F1449       F  0.76597877  0.42520283  0.09575701    -0.23800
F1450       F  0.76135094  0.40508897  0.13628286    -0.17800
F1451       F  0.66681069  0.46428957  0.01602457    -0.20200
F1452       F  0.68208000  0.48456403  0.05433501    -0.21400
F1453       F  0.65826136  0.44590854  0.05677547    -0.18600
F1454       F  0.79684923  0.40870745  0.01322046    -0.18700
F1455       F  0.77325241  0.37083507  0.02176416    -0.22500
F1456       F  0.79216273  0.39459260  0.05621563    -0.24100
C1457       C  0.75289870  0.62728446  0.10022138    -0.10900
C1458       C  0.74524136  0.59994113  0.09805158     0.11700
C1459       C  0.74257394  0.58403587  0.12187504    -0.02700
C1460       C  0.74810594  0.59610848  0.14727715    -0.05500
C1461       C  0.75725515  0.62308718  0.14955949    -0.16200
C1462       C  0.75909832  0.63926563  0.12563479     0.02700
C1463       C  0.74307307  0.58732898  0.07061465     0.12600
C1464       C  0.73529776  0.55398895  0.12036778     0.63300
H1465       H  0.74684511  0.58393221  0.16554969     0.12700
C1466       C  0.76767557  0.66892592  0.12659839     0.55400
H1467       H  0.75506658  0.63886504  0.08163949     0.08500
C1468       C  0.71807899  0.58559894  0.05629466    -0.05400
C1469       C  0.71624954  0.56734213  0.03416294    -0.06100
C1470       C  0.73891316  0.55198067  0.02565614    -0.15700
C1471       C  0.76470003  0.55663926  0.03769873    -0.01300
C1472       C  0.76634531  0.57434655  0.06016949    -0.08800
C1473       C  0.69361067  0.60271067  0.06459552     0.65500
H1474       H  0.69681405  0.56383010  0.02427255     0.10900
C1475       C  0.79009168  0.54221520  0.02734125     0.63900
H1476       H  0.78549353  0.57685021  0.07089958     0.08300
F1477       F  0.76305107  0.68182195  0.10199932    -0.19200
F1478       F  0.79523510  0.67070574  0.13229940    -0.15400
F1479       F  0.75296802  0.68268254  0.14640117    -0.18900
F1480       F  0.75568563  0.53982105  0.10693456    -0.22300
F1481       F  0.71101271  0.55051041  0.10651184    -0.23800
F1482       F  0.73233118  0.54271975  0.14597637    -0.17800
F1483       F  0.81322167  0.55033852  0.04133102    -0.20200
F1484       F  0.79374918  0.54815990  0.00009162    -0.21400
F1485       F  0.78745561  0.51439376  0.03032110    -0.18600
F1486       F  0.67144620  0.59817626  0.04769972    -0.18700
F1487       F  0.70032479  0.62996061  0.06306679    -0.22500
F1488       F  0.68591493  0.59680696  0.09097329    -0.24100
C1489       C  0.70312242  0.57237233  0.83809804    -0.10900
C1490       C  0.72640780  0.58291410  0.82542555     0.11700
C1491       C  0.75209712  0.58053680  0.83837233    -0.02700
C1492       C  0.75429800  0.56398367  0.86160996    -0.05500
C1493       C  0.73141411  0.55087134  0.87250097    -0.16200
C1494       C  0.70522251  0.55638201  0.86171288     0.02700
C1495       C  0.72373205  0.59389072  0.79739406     0.12600
C1496       C  0.77702403  0.59482245  0.82710893     0.63300
H1497       H  0.77412478  0.55975377  0.87040879     0.12700
C1498       C  0.67989130  0.54421856  0.87446127     0.55400
H1499       H  0.68351323  0.57530785  0.82834778     0.08500
C1500       C  0.72520332  0.57658622  0.77428610    -0.05400
C1501       C  0.72297381  0.58811144  0.74819151    -0.06100
C1502       C  0.71776750  0.61599042  0.74455491    -0.15700
C1503       C  0.71582316  0.63323396  0.76787129    -0.01300
C1504       C  0.71924951  0.62180210  0.79393967    -0.08800
C1505       C  0.72779560  0.54589398  0.77727007     0.65500
H1506       H  0.72369415  0.57507224  0.73036632     0.10900
C1507       C  0.70995437  0.66350573  0.76554307     0.63900
H1508       H  0.71775420  0.63446575  0.81198874     0.08300
F1509       F  0.68077197  0.51615265  0.87246982    -0.19200
F1510       F  0.65630670  0.55324972  0.86184487    -0.15400
F1511       F  0.67857771  0.55163772  0.90163364    -0.18900
F1512       F  0.77221184  0.62255297  0.82639363    -0.22300
F1513       F  0.78256075  0.58566041  0.80102878    -0.23800
F1514       F  0.79989256  0.59031571  0.84303565    -0.17800
F1515       F  0.68297899  0.66754455  0.75831034    -0.20200
F1516       F  0.72676519  0.67497727  0.74615066    -0.21400
F1517       F  0.71441174  0.67699495  0.78995024    -0.18600
F1518       F  0.73017150  0.53294199  0.75228604    -0.18700
F1519       F  0.70485678  0.53588717  0.79011086    -0.22500
F1520       F  0.75057490  0.53939003  0.79254309    -0.24100
C1521       C  0.76644691  0.41801875  0.84767105    -0.10900
C1522       C  0.74138125  0.40485977  0.84373556     0.11700
C1523       C  0.71770001  0.41482541  0.85705539    -0.02700
C1524       C  0.71982154  0.43827050  0.87338944    -0.05500
C1525       C  0.74463769  0.45196872  0.87657489    -0.16200
C1526       C  0.76840837  0.44181905  0.86367274     0.02700
C1527       C  0.74009514  0.38082994  0.82530529     0.12600
C1528       C  0.69025397  0.40088291  0.85381222     0.63300
H1529       H  0.70191439  0.44655295  0.88339073     0.12700
C1530       C  0.79554053  0.45621972  0.86677905     0.55400
H1531       H  0.78432855  0.40979882  0.83759828     0.08500
C1532       C  0.73698873  0.38352441  0.79674355    -0.05400
C1533       C  0.73092313  0.36018255  0.78113063    -0.06100
C1534       C  0.72847516  0.33456273  0.79328652    -0.15700
C1535       C  0.73444790  0.33153944  0.82138330    -0.01300
C1536       C  0.74001428  0.35490822  0.83701271    -0.08800
C1537       C  0.73969950  0.41098107  0.78301640     0.65500
H1538       H  0.72707111  0.36189537  0.75948386     0.10900
C1539       C  0.73566274  0.30368324  0.83459086     0.63900
H1540       H  0.74342271  0.35327514  0.85874433     0.08300
F1541       F  0.81640928  0.44228390  0.85375747    -0.19200
F1542       F  0.80209966  0.45840886  0.89409613    -0.15400
F1543       F  0.79389642  0.48196611  0.85566389    -0.18900
F1544       F  0.69145323  0.37513721  0.86496265    -0.22300
F1545       F  0.68352707  0.39877605  0.82653590    -0.23800
F1546       F  0.66956309  0.41514792  0.86676917    -0.17800
F1547       F  0.74467603  0.30514647  0.86128925    -0.20200
F1548       F  0.75359916  0.28727262  0.82022010    -0.21400
F1549       F  0.71013673  0.29185204  0.83462936    -0.18600
F1550       F  0.73545730  0.40918873  0.75519223    -0.18700
F1551       F  0.76567216  0.42100794  0.78727470    -0.22500
F1552       F  0.72086573  0.42912014  0.79366588    -0.24100
C1553       C  0.38476534  0.70733031  0.30105377    -0.10900
C1554       C  0.36521079  0.68678787  0.30391354     0.11700
C1555       C  0.37082941  0.66430955  0.32099233    -0.02700
C1556       C  0.39447667  0.66492687  0.33727778    -0.05500
C1557       C  0.41199840  0.68746279  0.33728919    -0.16200
C1558       C  0.40770674  0.70862810  0.31825376     0.02700
C1559       C  0.33725257  0.69226400  0.29339118     0.12600
C1560       C  0.35108933  0.64070108  0.32326661     0.63300
H1561       H  0.39820987  0.64894084  0.35194156     0.12700
C1562       C  0.42589748  0.73355789  0.31776157     0.55400
H1563       H  0.38031110  0.72391610  0.28727796     0.08500
C1564       C  0.32004481  0.71129827  0.30676104    -0.05400
C1565       C  0.29397311  0.71608995  0.29615328    -0.06100
C1566       C  0.28392871  0.70205926  0.27324534    -0.15700
C1567       C  0.30076182  0.68216910  0.26044973    -0.01300
C1568       C  0.32751462  0.67808816  0.27047418    -0.08800
C1569       C  0.32895818  0.72656239  0.33232822     0.65500
H1570       H  0.28121715  0.73137585  0.30575398     0.10900
C1571       C  0.29046362  0.66471549  0.23705235     0.63900
H1572       H  0.34104913  0.66371072  0.26053788     0.08300
F1573       F  0.42538074  0.74642155  0.34286804    -0.19200
F1574       F  0.41752509  0.75217538  0.29836575    -0.15400
F1575       F  0.45236254  0.72584839  0.31177288    -0.18900
F1576       F  0.34804650  0.62835680  0.29810726    -0.22300
F1577       F  0.32595826  0.64995359  0.33221388    -0.23800
F1578       F  0.36028507  0.62119261  0.34136764    -0.17800
F1579       F  0.28722063  0.68047007  0.21401514    -0.20200
F1580       F  0.26574284  0.65312160  0.24395333    -0.21400
F1581       F  0.30844743  0.64380500  0.23085974    -0.18600
F1582       F  0.30768668  0.74116763  0.34391119    -0.18700
F1583       F  0.34938735  0.74476956  0.32605499    -0.22500
F1584       F  0.33839955  0.70842759  0.35164129    -0.24100
C1585       C  0.34486050  0.71431602  0.50847370    -0.10900
C1586       C  0.37186833  0.72360248  0.50849712     0.11700
C1587       C  0.38263238  0.73627208  0.53204030    -0.02700
C1588       C  0.36624458  0.73782447  0.55550781    -0.05500
C1589       C  0.33930219  0.72796739  0.55583438    -0.16200
C1590       C  0.32823110  0.71628173  0.53178138     0.02700
C1591       C  0.38860238  0.71884777  0.48372789     0.12600
C1592       C  0.41112177  0.74839633  0.53218898     0.63300
H1593       H  0.37425184  0.74731328  0.57377335     0.12700
C1594       C  0.29936760  0.70523993  0.53077070     0.55400
H1595       H  0.33702246  0.70518850  0.48995160     0.08500
C1596       C  0.40105287  0.69329012  0.47852918    -0.05400
C1597       C  0.41567564  0.68964643  0.45414789    -0.06100
C1598       C  0.41811768  0.71067275  0.43513154    -0.15700
C1599       C  0.40641067  0.73645075  0.44066484    -0.01300
C1600       C  0.39144653  0.74003733  0.46488848    -0.08800
C1601       C  0.39858773  0.66992161  0.49853370     0.65500
H1602       H  0.42490668  0.67013285  0.44941971     0.10900
C1603       C  0.41017051  0.76001131  0.42118396     0.63900
H1604       H  0.38170735  0.75937449  0.46928764     0.08300
F1605       F  0.29427079  0.69132954  0.50673477    -0.19200
F1606       F  0.28086378  0.72646978  0.53259709    -0.15400
F1607       F  0.29529570  0.68740862  0.55209385    -0.18900
F1608       F  0.41240985  0.76938235  0.51359055    -0.22300
F1609       F  0.43021168  0.72879689  0.52525716    -0.23800
F1610       F  0.41804683  0.75877493  0.55751459    -0.17800
F1611       F  0.39813226  0.75404020  0.39642118    -0.20200
F1612       F  0.43771597  0.76456871  0.41725491    -0.21400
F1613       F  0.39856499  0.78377761  0.43110397    -0.18600
F1614       F  0.41371517  0.64748984  0.49038689    -0.18700
F1615       F  0.37163454  0.66207291  0.50063288    -0.22500
F1616       F  0.40787019  0.67790722  0.52391867    -0.24100
C1617       C  0.59587421  0.66962398  0.53086931    -0.10900
C1618       C  0.61018913  0.67743041  0.50758766     0.11700
C1619       C  0.63868841  0.68183012  0.50907095    -0.02700
C1620       C  0.65226492  0.67643760  0.53379196    -0.05500
C1621       C  0.63811066  0.66708385  0.55678386    -0.16200
C1622       C  0.60926968  0.66435883  0.55557875     0.02700
C1623       C  0.59452536  0.68039974  0.48190688     0.12600
C1624       C  0.65455513  0.69212872  0.48466856     0.63300
H1625       H  0.67415319  0.67900008  0.53520639     0.12700
C1626       C  0.59241818  0.65639209  0.58024690     0.55400
H1627       H  0.57398438  0.66711729  0.52929394     0.08500
C1628       C  0.58666073  0.65748456  0.46614732    -0.05400
C1629       C  0.57132244  0.66170341  0.44233735    -0.06100
C1630       C  0.56345029  0.68786009  0.43426549    -0.15700
C1631       C  0.57120357  0.71074339  0.44999532    -0.01300
C1632       C  0.58648724  0.70656560  0.47387066    -0.08800
C1633       C  0.59389308  0.62869301  0.47472618     0.65500
H1634       H  0.56510575  0.64457513  0.42986506     0.10900
C1635       C  0.56357966  0.73935799  0.44131509     0.63900
H1636       H  0.59233782  0.72369533  0.48650513     0.08300
F1637       F  0.59647709  0.62917925  0.58606356    -0.19200
F1638       F  0.56479247  0.66034083  0.57583324    -0.15400
F1639       F  0.59981396  0.67206125  0.60250961    -0.18900
F1640       F  0.64563349  0.71797183  0.47801032    -0.22300
F1641       F  0.65069735  0.67501784  0.46258065    -0.23800
F1642       F  0.68226850  0.69345419  0.48993107    -0.17800
F1643       F  0.57296136  0.75873913  0.45956516    -0.20200
F1644       F  0.53552270  0.74178534  0.43963535    -0.21400
F1645       F  0.57486625  0.74475961  0.41612969    -0.18600
F1646       F  0.58737464  0.60983855  0.45473959    -0.18700
F1647       F  0.57960693  0.62211747  0.49802651    -0.22500
F1648       F  0.62154947  0.62658079  0.47986779    -0.24100
C1649       C  0.66157869  0.69314802  0.30882803    -0.10900
C1650       C  0.64032816  0.69003654  0.28999823     0.11700
C1651       C  0.64631100  0.68628762  0.26211743    -0.02700
C1652       C  0.67373420  0.68241016  0.25442603    -0.05500
C1653       C  0.69504415  0.68373429  0.27360314    -0.16200
C1654       C  0.68902156  0.69027278  0.30114677     0.02700
C1655       C  0.61220827  0.68969978  0.30096971     0.12600
C1656       C  0.62392002  0.68706284  0.24076608     0.63300
H1657       H  0.67877109  0.67815428  0.23335636     0.12700
C1658       C  0.71117623  0.69298263  0.32266892     0.55400
H1659       H  0.65629499  0.69693730  0.32993057     0.08500
C1660       C  0.60107072  0.66555445  0.31196744    -0.05400
C1661       C  0.57730004  0.66750272  0.32781214    -0.06100
C1662       C  0.56570447  0.69280267  0.33442178    -0.15700
C1663       C  0.57607053  0.71674753  0.32246700    -0.01300
C1664       C  0.59896358  0.71470339  0.30527896    -0.08800
C1665       C  0.61564510  0.63826734  0.30928380     0.65500
H1666       H  0.56930140  0.64957362  0.33772334     0.10900
C1667       C  0.56434832  0.74442456  0.32974765     0.63900
H1668       H  0.60817527  0.73290153  0.29706605     0.08300
F1669       F  0.72665595  0.66941348  0.32359753    -0.19200
F1670       F  0.70042421  0.69744473  0.34838050    -0.15400
F1671       F  0.72778454  0.71479831  0.31657140    -0.18900
F1672       F  0.61081882  0.71200385  0.24189292    -0.22300
F1673       F  0.60504920  0.66681919  0.24540774    -0.23800
F1674       F  0.63421550  0.68357195  0.21473482    -0.17800
F1675       F  0.57637942  0.76502643  0.31490524    -0.20200
F1676       F  0.53665341  0.74480470  0.32443470    -0.21400
F1677       F  0.56858928  0.74971170  0.35710348    -0.18600
F1678       F  0.60070779  0.61734856  0.32065816    -0.18700
F1679       F  0.64054424  0.63933918  0.32246722    -0.22500
F1680       F  0.61994630  0.63194643  0.28220182    -0.24100
C1681       C  0.09746005  0.69017905  0.35695670    -0.10900
C1682       C  0.11066114  0.69463910  0.38182268     0.11700
C1683       C  0.13861693  0.70151865  0.38213012    -0.02700
C1684       C  0.15202716  0.70550284  0.35716827    -0.05500
C1685       C  0.13842091  0.70318122  0.33193859    -0.16200
C1686       C  0.11064575  0.69435484  0.33183577     0.02700
C1687       C  0.09424017  0.69300922  0.40718017     0.12600
C1688       C  0.15397038  0.70557735  0.40873784     0.63300
H1689       H  0.17322925  0.71151298  0.35738719     0.12700
C1690       C  0.09442217  0.68957518  0.30581195     0.55400
H1691       H  0.07621300  0.68425567  0.35752432     0.08500
C1692       C  0.07715839  0.71475308  0.41567402    -0.05400
C1693       C  0.06229483  0.71202494  0.43996038    -0.06100
C1694       C  0.06414971  0.68850774  0.45591723    -0.15700
C1695       C  0.08113988  0.66667492  0.44739035    -0.01300
C1696       C  0.09566412  0.66921552  0.42278932    -0.08800
C1697       C  0.07438254  0.74061682  0.39904145     0.65500
H1698       H  0.04914941  0.72841301  0.44688766     0.10900
C1699       C  0.08356671  0.64071084  0.46387132     0.63900
H1700       H  0.10853152  0.65273343  0.41559876     0.08300
F1701       F  0.06887998  0.67883711  0.31101242    -0.19200
F1702       F  0.10812997  0.67129489  0.28919456    -0.15400
F1703       F  0.09053894  0.71390534  0.29227598    -0.18900
F1704       F  0.15357032  0.68185238  0.42372231    -0.22300
F1705       F  0.14188188  0.72621782  0.42371937    -0.23800
F1706       F  0.18098448  0.71246762  0.40444913    -0.17800
F1707       F  0.05801568  0.62944306  0.46735221    -0.20200
F1708       F  0.09483689  0.64622944  0.48908251    -0.21400
F1709       F  0.10003620  0.62160130  0.45109196    -0.18600
F1710       F  0.05978964  0.76050355  0.41286345    -0.18700
F1711       F  0.06086142  0.73494331  0.37498197    -0.22500
F1712       F  0.09982415  0.75109131  0.39313689    -0.24100
C1713       C  0.14412845  0.70773190  0.62829208    -0.10900
C1714       C  0.13984440  0.70392672  0.60033512     0.11700
C1715       C  0.16228014  0.70468443  0.58224452    -0.02700
C1716       C  0.18855389  0.70849681  0.59301677    -0.05500
C1717       C  0.19319637  0.71308044  0.62101510    -0.16200
C1718       C  0.17040199  0.71274854  0.63906903     0.02700
C1719       C  0.11156361  0.70092647  0.58986953     0.12600
C1720       C  0.15837440  0.70265677  0.55149030     0.63300
H1721       H  0.20575926  0.70879996  0.57923113     0.12700
C1722       C  0.17324173  0.71878702  0.66929252     0.55400
H1723       H  0.12646690  0.70744283  0.64151368     0.08500
C1724       C  0.10054639  0.67515378  0.58332813    -0.05400
C1725       C  0.07784377  0.67400631  0.56582654    -0.06100
C1726       C  0.06547871  0.69778786  0.55593024    -0.15700
C1727       C  0.07401012  0.72342951  0.56585454    -0.01300
C1728       C  0.09719355  0.72460845  0.58274767    -0.08800
C1729       C  0.11284797  0.64916294  0.59467155     0.65500
H1730       H  0.07053261  0.65455309  0.55843551     0.10900
C1731       C  0.05962184  0.74937309  0.55725707     0.63900
H1732       H  0.10553045  0.74411643  0.58874470     0.08300
F1733       F  0.18932537  0.69910591  0.68143342    -0.19200
F1734       F  0.14825869  0.71895382  0.68243041    -0.15400
F1735       F  0.18488951  0.74413729  0.67298831    -0.18900
F1736       F  0.14205946  0.72384804  0.54262619    -0.22300
F1737       F  0.14615244  0.67831151  0.54456521    -0.23800
F1738       F  0.18290712  0.70406360  0.53763586    -0.17800
F1739       F  0.03214799  0.74758270  0.56332704    -0.20200
F1740       F  0.06994527  0.77194464  0.57065227    -0.21400
F1741       F  0.06269822  0.75318019  0.52954670    -0.18600
F1742       F  0.09952779  0.62628636  0.58498269    -0.18700
F1743       F  0.11063345  0.64957116  0.62273293    -0.22500
F1744       F  0.14007176  0.64687153  0.58774015    -0.24100
C1745       C  0.87866046  0.70658437  0.58364572    -0.10900
C1746       C  0.86497811  0.68158118  0.58415448     0.11700
C1747       C  0.87596357  0.65897264  0.56979533    -0.02700
C1748       C  0.89932459  0.66278306  0.55362567    -0.05500
C1749       C  0.91175606  0.68832925  0.55148493    -0.16200
C1750       C  0.90216924  0.71027035  0.56763191     0.02700
C1751       C  0.83725211  0.68055718  0.59633599     0.12600
C1752       C  0.86215996  0.63134338  0.57033308     0.63300
H1753       H  0.90685829  0.64634808  0.54088893     0.12700
C1754       C  0.91631401  0.73764186  0.56707650     0.55400
H1755       H  0.86990707  0.72360575  0.59470518     0.08500
C1756       C  0.83259945  0.67639403  0.62441190    -0.05400
C1757       C  0.80564134  0.67208458  0.63334925    -0.06100
C1758       C  0.78335632  0.67331344  0.61531731    -0.15700
C1759       C  0.78800595  0.68003607  0.58755610    -0.01300
C1760       C  0.81502511  0.68334356  0.57862143    -0.08800
C1761       C  0.85593257  0.67681359  0.64471458     0.65500
H1762       H  0.80172780  0.66766847  0.65457451     0.10900
C1763       C  0.76487466  0.68283579  0.56707117     0.63900
H1764       H  0.81920944  0.68754636  0.55739659     0.08300
F1765       F  0.94331589  0.73434723  0.57458681    -0.19200
F1766       F  0.90435597  0.75605702  0.58487692    -0.15400
F1767       F  0.91517413  0.74845602  0.54115704    -0.18900
F1768       F  0.83713624  0.63280511  0.55743057    -0.22300
F1769       F  0.85830610  0.62317149  0.59694513    -0.23800
F1770       F  0.87765232  0.61161558  0.55729276    -0.17800
F1771       F  0.77441847  0.68715086  0.54091480    -0.20200
F1772       F  0.74858031  0.70481142  0.57404801    -0.21400
F1773       F  0.74936870  0.65937815  0.56665235    -0.18600
F1774       F  0.84697504  0.67230647  0.67103728    -0.18700
F1775       F  0.86846050  0.70195812  0.64414817    -0.22500
F1776       F  0.87487590  0.65694327  0.63821551    -0.24100
C1777       C  0.89300275  0.72600237  0.41690221    -0.10900
C1778       C  0.88851154  0.70079662  0.40411066     0.11700
C1779       C  0.89993622  0.67680109  0.41535498    -0.02700
C1780       C  0.91497551  0.67880623  0.43959214    -0.05500
C1781       C  0.91879352  0.70379041  0.45280815    -0.16200
C1782       C  0.90790781  0.72787426  0.44141111     0.02700
C1783       C  0.87149651  0.69959994  0.37911021     0.12600
C1784       C  0.89586083  0.64909551  0.40208487     0.63300
H1785       H  0.92353148  0.66070727  0.44883458     0.12700
C1786       C  0.91212229  0.75520755  0.45516666     0.55400
H1787       H  0.88443426  0.74410273  0.40770027     0.08500
C1788       C  0.84266623  0.69825138  0.38030041    -0.05400
C1789       C  0.82814478  0.69176595  0.35638008    -0.06100
C1790       C  0.84171918  0.68643192  0.33177376    -0.15700
C1791       C  0.87040918  0.68979672  0.33023537    -0.01300
C1792       C  0.88478449  0.69675676  0.35402204    -0.08800
C1793       C  0.82749597  0.70322118  0.40681646     0.65500
H1794       H  0.80615910  0.68975029  0.35693773     0.10900
C1795       C  0.88588113  0.68578430  0.30370228     0.63900
H1796       H  0.90680651  0.69844196  0.35358967     0.08300
F1797       F  0.90118563  0.75479996  0.48110477    -0.19200
F1798       F  0.89973069  0.77611716  0.44090174    -0.15400
F1799       F  0.93972991  0.76063582  0.45688135    -0.18900
F1800       F  0.90799394  0.64860142  0.37669622    -0.22300
F1801       F  0.86832293  0.64378662  0.39929783    -0.23800
F1802       F  0.90730123  0.62837374  0.41736290    -0.17800
F1803       F  0.91268886  0.69429364  0.30585524    -0.20200
F1804       F  0.87357794  0.70064697  0.28318909    -0.21400
F1805       F  0.88609714  0.65853493  0.29659349    -0.18600
F1806       F  0.79966297  0.69959771  0.40384052    -0.18700
F1807       F  0.83190874  0.72963923  0.41549227    -0.22500
F1808       F  0.83663150  0.68545063  0.42661017    -0.24100
C1809       C  0.42867326  0.09030247  0.71548771    -0.10900
C1810       C  0.42526841  0.06204713  0.71588485     0.11700
C1811       C  0.39903771  0.05088672  0.71925376    -0.02700
C1812       C  0.37669813  0.06871086  0.72114532    -0.05500
C1813       C  0.37974499  0.09726750  0.72059172    -0.16200
C1814       C  0.40643281  0.10833377  0.71779775     0.02700
C1815       C  0.44986080  0.04484836  0.71252885     0.12600
C1816       C  0.39470681  0.02034927  0.72141386     0.63300
H1817       H  0.35657509  0.06020190  0.72390803     0.12700
C1818       C  0.41193205  0.13875607  0.71718959     0.55400
H1819       H  0.44920676  0.09808272  0.71341473     0.08500
C1820       C  0.46203168  0.04086789  0.68667782    -0.05400
C1821       C  0.48692806  0.02676282  0.68523476    -0.06100
C1822       C  0.49945494  0.01634623  0.70864279    -0.15700
C1823       C  0.48651702  0.01884427  0.73421888    -0.01300
C1824       C  0.46199982  0.03367917  0.73584995    -0.08800
C1825       C  0.44898146  0.05180666  0.66084396     0.65500
H1826       H  0.49713300  0.02412258  0.66583232     0.10900
C1827       C  0.49877765  0.00607935  0.75949671     0.63900
H1828       H  0.45230980  0.03706582  0.75539128     0.08300
F1829       F  0.43903101  0.14439555  0.71170361    -0.19200
F1830       F  0.40577804  0.15021239  0.74223176    -0.15400
F1831       F  0.39636063  0.15086868  0.69707662    -0.18900
F1832       F  0.40715542  0.01073171  0.74474418    -0.22300
F1833       F  0.40575668  0.00721916  0.69902676    -0.23800
F1834       F  0.36730551  0.01374382  0.72272880    -0.17800
F1835       F  0.52400509  0.01744161  0.76472157    -0.20200
F1836       F  0.50185273  0.97835897  0.75554207    -0.21400
F1837       F  0.48240671  0.01001887  0.78214326    -0.18600
F1838       F  0.46252930  0.04285696  0.63773519    -0.18700
F1839       F  0.44952067  0.07991237  0.66110814    -0.22500
F1840       F  0.42221523  0.04321889  0.65901564    -0.24100
C1841       C  0.66943901  0.10481739  0.70205515    -0.10900
C1842       C  0.64112755  0.10094421  0.70222493     0.11700
C1843       C  0.62356450  0.12305457  0.70852871    -0.02700
C1844       C  0.63497696  0.14896829  0.71229527    -0.05500
C1845       C  0.66329411  0.15290158  0.71261783    -0.16200
C1846       C  0.68097713  0.13038319  0.70807987     0.02700
C1847       C  0.63027928  0.07305780  0.69849702     0.12600
C1848       C  0.59315132  0.11898030  0.71317102     0.63300
H1849       H  0.62185841  0.16620591  0.71674074     0.12700
C1850       C  0.71175021  0.13308384  0.71011808     0.55400
H1851       H  0.68241823  0.08732779  0.69826956     0.08500
C1852       C  0.61927023  0.06407844  0.67339921    -0.05400
C1853       C  0.60304103  0.04052063  0.67320772    -0.06100
C1854       C  0.59890545  0.02539814  0.69699976    -0.15700
C1855       C  0.61346819  0.03213208  0.72095402    -0.01300
C1856       C  0.62887385  0.05619193  0.72139629    -0.08800
C1857       C  0.62467373  0.07934797  0.64716179     0.65500
H1858       H  0.59219918  0.03460601  0.65489840     0.10900
C1859       C  0.61178527  0.01447277  0.74612126     0.63900
H1860       H  0.63849089  0.06292961  0.74010465     0.08300
F1861       F  0.72501970  0.10967996  0.70147114    -0.19200
F1862       F  0.71909578  0.13780345  0.73691889    -0.15400
F1863       F  0.72057829  0.15442395  0.69416121    -0.18900
F1864       F  0.58930444  0.10083995  0.73424934    -0.22300
F1865       F  0.58082993  0.10883287  0.68998798    -0.23800
F1866       F  0.58011966  0.14307483  0.72009712    -0.17800
F1867       F  0.62947071  0.02323667  0.76631271    -0.20200
F1868       F  0.61869111  0.98797617  0.73937964    -0.21400
F1869       F  0.58556962  0.01500950  0.75644684    -0.18600
F1870       F  0.61316765  0.06633581  0.62490460    -0.18700
F1871       F  0.65250499  0.08090673  0.64295419    -0.22500
F1872       F  0.61408738  0.10539857  0.64854912    -0.24100
C1873       C  0.61299586  0.82764529  0.70962588    -0.10900
C1874       C  0.62780986  0.82097028  0.68613211     0.11700
C1875       C  0.62978061  0.84006172  0.66467034    -0.02700
C1876       C  0.61502226  0.86458995  0.66671992    -0.05500
C1877       C  0.59831201  0.87014018  0.68923535    -0.16200
C1878       C  0.59847620  0.85220861  0.71174327     0.02700
C1879       C  0.63796515  0.79267419  0.68299128     0.12600
C1880       C  0.64608314  0.83386206  0.63905604     0.63300
H1881       H  0.61428008  0.87837475  0.64957586     0.12700
C1882       C  0.58236768  0.85728943  0.73766482     0.55400
H1883       H  0.61156573  0.81290681  0.72592085     0.08500
C1884       C  0.66222416  0.78323623  0.69551245    -0.05400
C1885       C  0.67102475  0.75643075  0.69004438    -0.06100
C1886       C  0.65621480  0.73930401  0.67261532    -0.15700
C1887       C  0.63166969  0.74855321  0.66064925    -0.01300
C1888       C  0.62261462  0.77502366  0.66657764    -0.08800
C1889       C  0.67857654  0.80137024  0.71448591     0.65500
H1890       H  0.68961614  0.74868304  0.69912992     0.10900
C1891       C  0.61556580  0.73064877  0.64118592     0.63900
H1892       H  0.60381173  0.78255250  0.65772546     0.08300
F1893       F  0.59966776  0.85514987  0.75982323    -0.19200
F1894       F  0.56210538  0.83793140  0.73991567    -0.15400
F1895       F  0.57043726  0.88280907  0.73858185    -0.18900
F1896       F  0.63405279  0.81286654  0.62465850    -0.22300
F1897       F  0.67240574  0.82641101  0.64593897    -0.23800
F1898       F  0.64751051  0.85620561  0.62206362    -0.17800
F1899       F  0.60845522  0.70668569  0.65396655    -0.20200
F1900       F  0.63131959  0.72466536  0.61856481    -0.21400
F1901       F  0.59186477  0.74325244  0.63238108    -0.18600
F1902       F  0.70246759  0.78888165  0.72291817    -0.18700
F1903       F  0.66327930  0.80749317  0.73735081    -0.22500
F1904       F  0.68539019  0.82526014  0.70143629    -0.24100
C1905       C  0.46631626  0.85490426  0.64436095    -0.10900
C1906       C  0.45251382  0.84841637  0.66845836     0.11700
C1907       C  0.46278896  0.85728701  0.69388502    -0.02700
C1908       C  0.48671338  0.87284573  0.69423318    -0.05500
C1909       C  0.50061297  0.87923706  0.67014424    -0.16200
C1910       C  0.49022925  0.87050116  0.64467994     0.02700
C1911       C  0.42754288  0.83182462  0.66651522     0.12600
C1912       C  0.44899875  0.84965744  0.72049027     0.63300
H1913       H  0.49535944  0.87944137  0.71346749     0.12700
C1914       C  0.50340288  0.87671389  0.61745223     0.55400
H1915       H  0.45827983  0.84767323  0.62506767     0.08500
C1916       C  0.40201002  0.84353702  0.66024614    -0.05400
C1917       C  0.37911396  0.82658023  0.65930189    -0.06100
C1918       C  0.38088436  0.79839192  0.66435013    -0.15700
C1919       C  0.40674610  0.78675983  0.67072210    -0.01300
C1920       C  0.42969847  0.80384637  0.67132080    -0.08800
C1921       C  0.39899502  0.87378772  0.65447190     0.65500
H1922       H  0.35954581  0.83539856  0.65410442     0.10900
C1923       C  0.41045899  0.75679270  0.67734512     0.63900
H1924       H  0.44971719  0.79555506  0.67571464     0.08300
F1925       F  0.48448533  0.88933417  0.60078028    -0.19200
F1926       F  0.51160084  0.85261323  0.60528380    -0.15400
F1927       F  0.52580930  0.89356748  0.61953182    -0.18900
F1928       F  0.45030699  0.82180105  0.72403115    -0.22300
F1929       F  0.42195698  0.85770845  0.72017582    -0.23800
F1930       F  0.46141712  0.86187557  0.74269711    -0.17800
F1931       F  0.40573230  0.74117481  0.65433627    -0.20200
F1932       F  0.39260838  0.74939129  0.69780116    -0.21400
F1933       F  0.43664114  0.75106845  0.68630563    -0.18600
F1934       F  0.37210973  0.88109250  0.64971785    -0.18700
F1935       F  0.41399063  0.88053882  0.63167941    -0.22500
F1936       F  0.40826187  0.88881970  0.67643802    -0.24100
loop_ 
_geom_bond_atom_site_label_1 
_geom_bond_atom_site_label_2 
_geom_bond_distance 
_geom_bond_site_symmetry_2 
_ccdc_geom_bond_type 
C1            C2   1.397       .  A
C1            C6   1.408       .  A
C1         C1877   1.473       .  S
C2            C3   1.388       .  A
C2            H7   1.085       .  S
C3            C4   1.393       .  A
C3         C1909   1.469       .  S
C4            C5   1.414       .  A
C4            H8   1.081       .  S
C5            C6   1.415       .  A
C5           C12   1.499       .  S
C6            H9   1.082       .  S
C10          C11   1.408   1_545  A
C10          C15   1.399       .  A
C10        C1854   1.477       .  S
C11          C12   1.416       .  A
C11          H16   1.082       .  S
C12          C13   1.412       .  A
C13          C14   1.392   1_565  A
C13          H17   1.081       .  S
C14          C15   1.392       .  A
C14        C1822   1.473       .  S
C15          H18   1.085       .  S
C19          C20   1.408       .  A
C19          C24   1.397       .  A
C19        C1749   1.481       .  S
C20          C21   1.420       .  A
C20          H25   1.081       .  S
C21          C22   1.417       .  A
C21          C32   1.510   1_655  S
C22          C23   1.399       .  A
C22          H26   1.080       .  S
C23          C24   1.392       .  A
C23        C1781   1.478       .  S
C24          H27   1.085       .  S
C28          C29   1.397       .  A
C28          C33   1.406       .  A
C28        C1726   1.478       .  S
C29          C30   1.392       .  A
C29          H34   1.085       .  S
C30          C31   1.403       .  A
C30        C1694   1.483       .  S
C31          C32   1.419       .  A
C31          H35   1.080       .  S
C32          C33   1.417       .  A
C33          H36   1.080       .  S
C37          C38   1.396       .  A
C37          C42   1.407       .  A
C37        C1662   1.477       .  S
C38          C39   1.389       .  A
C38          H43   1.085       .  S
C39          C40   1.399       .  A
C39        C1630   1.476       .  S
C40          C41   1.418       .  A
C40          H44   1.080       .  S
C41          C42   1.419       .  A
C41          C50   1.508       .  S
C42          H45   1.081       .  S
C46          C47   1.399       .  A
C46          C51   1.408       .  A
C46        C1557   1.483       .  S
C47          C48   1.393       .  A
C47          H52   1.085       .  S
C48          C49   1.398       .  A
C48        C1598   1.479       .  S
C49          C50   1.416       .  A
C49          H53   1.080       .  S
C50          C51   1.419       .  A
C51          H54   1.081       .  S
C55          C56   1.407       .  A
C55          C60   1.396       .  A
C55        C1493   1.479       .  S
C56          C57   1.419       .  A
C56          H61   1.081       .  S
C57          C58   1.419       .  A
C57          C68   1.511       .  S
C58          C59   1.402       .  A
C58          H62   1.080       .  S
C59          C60   1.392       .  A
C59        C1525   1.480       .  S
C60          H63   1.085       .  S
C64          C65   1.398       .  A
C64          C69   1.405   1_554  A
C64        C1470   1.478       .  S
C65          C66   1.394       .  A
C65          H70   1.084       .  S
C66          C67   1.404   1_554  A
C66        C1438   1.484       .  S
C67          C68   1.418       .  A
C67          H71   1.080       .  S
C68          C69   1.418       .  A
C69          H72   1.081       .  S
Zn73         O77   1.965       .  S
Zn73         O78   2.044       .  S
Zn73         O82   2.050       .  S
Zn73         O89   2.053       .  S
Zn74         O77   1.950       .  S
Zn74         O79   2.036       .  S
Zn74         O81   2.017       .  S
Zn74         O85   2.009       .  S
Zn75         O77   1.932       .  S
Zn75         O80   1.997       .  S
Zn75         O83   1.995       .  S
Zn75         O86   2.009       .  S
Zn76         O77   1.953       .  S
Zn76         O84   2.047       .  S
Zn76         O87   2.034       .  S
Zn76         O88   2.019       .  S
O78          C90   1.278       .  A
O79          C91   1.275       .  A
O80          C92   1.271       .  A
O81          C90   1.274       .  A
O82          C92   1.276       .  A
O83          C91   1.269       .  A
O84          C93   1.276       .  A
O85          C94   1.272       .  A
O86          C93   1.272       .  A
O87          C94   1.277       .  A
O88          C95   1.274       .  A
O89          C95   1.280       .  A
C90        C1397   1.494       .  S
C91        C1310   1.492       .  S
C92        C1534   1.478       .  S
C93        C1342   1.486       .  S
C94        C1845   1.481       .  S
C95        C1374   1.479       .  S
Zn96        O100   1.940       .  S
Zn96        O101   2.003       .  S
Zn96        O105   2.023       .  S
Zn96        O112   1.989       .  S
Zn97        O100   1.967       .  S
Zn97        O102   2.043       .  S
Zn97        O104   2.062       .  S
Zn97        O108   2.065       .  S
Zn98        O100   1.945       .  S
Zn98        O103   2.010       .  S
Zn98        O106   2.001       .  S
Zn98        O109   2.014       .  S
Zn99        O100   1.932       .  S
Zn99        O107   1.986       .  S
Zn99        O110   1.978       .  S
Zn99        O111   2.003       .  S
O101        C113   1.275       .  A
O102        C114   1.276       .  A
O103        C115   1.272       .  A
O104        C113   1.279       .  A
O105        C115   1.272       .  A
O106        C114   1.276       .  A
O107        C116   1.270       .  A
O108        C117   1.279       .  A
O109        C116   1.270       .  A
O110        C117   1.268       .  A
O111        C118   1.271       .  A
O112        C118   1.268       .  A
C113       C1717   1.502       .  S
C114       C1237   1.500       .  S
C115       C1589   1.487       .  S
C116       C1918   1.490       .  S
C117       C1269   1.495       .  S
C118       C1205   1.478       .  S
C119        C120   1.404       .  A
C119        C124   1.393       .  A
C119       C1141   1.474       .  S
C120        C121   1.420       .  A
C120        H125   1.080       .  S
C121        C122   1.421       .  A
C121        C130   1.515       .  S
C122        C123   1.401       .  A
C122        H126   1.085       .  S
C123        C124   1.389       .  A
C123       C1182   1.476   1_455  S
C124        H127   1.085       .  S
C128        C129   1.406       .  A
C128        C133   1.393       .  A
C128       C1077   1.478       .  S
C129        C130   1.423       .  A
C129        H134   1.080       .  S
C130        C131   1.418       .  A
C131        C132   1.399       .  A
C131        H135   1.085       .  S
C132        C133   1.389       .  A
C132       C1118   1.474   1_455  S
C133        H136   1.084       .  S
Zn137       O141   1.953       .  S
Zn137       O142   2.039       .  S
Zn137       O146   2.015       .  S
Zn137       O153   2.001       .  S
Zn138       O141   1.924       .  S
Zn138       O143   1.975       .  S
Zn138       O145   1.994       .  S
Zn138       O149   1.981       .  S
Zn139       O141   1.957       .  S
Zn139       O144   2.022       .  S
Zn139       O147   2.054       .  S
Zn139       O150   2.038       .  S
Zn140       O141   1.955       .  S
Zn140       O148   2.019       .  S
Zn140       O151   2.043       .  S
Zn140       O152   2.025       .  S
O142        C154   1.274       .  A
O143        C155   1.267       .  A
O144        C156   1.275       .  A
O145        C154   1.269       .  A
O146        C156   1.273       .  A
O147        C155   1.278       .  A
O148        C157   1.274       .  A
O149        C158   1.268       .  A
O150        C157   1.279       .  A
O151        C158   1.274       .  A
O152        C159   1.276       .  A
O153        C159   1.272       .  A
C154       C1790   1.478       .  S
C155       C1013   1.490       .  S
C156       C1653   1.481       .  S
C157       C1461   1.491       .  S
C158       C1173   1.475       .  S
C159       C1045   1.468       .  S
C160        C161   1.412       .  A
C160        C165   1.400       .  A
C160       C1406   1.485       .  S
C161        C162   1.418       .  A
C161        H166   1.082       .  S
C162        C163   1.415       .  A
C162        C171   1.507   1_655  S
C163        C164   1.403       .  A
C163        H167   1.081       .  S
C164        C165   1.399       .  A
C164        C990   1.492       .  S
C165        H168   1.084       .  S
C169        C170   1.411       .  A
C169        C174   1.403       .  A
C169        C949   1.489       .  S
C170        C171   1.417       .  A
C170        H175   1.082       .  S
C171        C172   1.416       .  A
C172        C173   1.402       .  A
C172        H176   1.082       .  S
C173        C174   1.397       .  A
C173        C917   1.492       .  S
C174        H177   1.084       .  S
Zn178       O182   1.956       .  S
Zn178       O183   2.028       .  S
Zn178       O187   2.003       .  S
Zn178       O194   2.033       .  S
Zn179       O182   1.951       .  S
Zn179       O184   2.014       .  S
Zn179       O186   2.005       .  S
Zn179       O190   2.024       .  S
Zn180       O182   1.950       .  S
Zn180       O185   2.010       .  S
Zn180       O188   1.999       .  S
Zn180       O191   2.023       .  S
Zn181       O182   1.942       .  S
Zn181       O189   2.011       .  S
Zn181       O192   1.990       .  S
Zn181       O193   2.013       .  S
O183        C195   1.274       .  A
O184        C196   1.273       .  A
O185        C197   1.273       .  A
O186        C195   1.272       .  A
O187        C197   1.274       .  A
O188        C196   1.272       .  A
O189        C198   1.272       .  A
O190        C199   1.274       .  A
O191        C198   1.272       .  A
O192        C199   1.269       .  A
O193        C200   1.273       .  A
O194        C200   1.274       .  A
C195        C894   1.474       .  S
C196        C853   1.480       .  S
C197        C830   1.472       .  S
C198        C981   1.478       .  S
C199       C1109   1.480       .  S
C200       C1429   1.474       .  S
C201        C202   1.395   1_554  A
C201        C206   1.406       .  A
C201        C757   1.479       .  S
C202        C203   1.394       .  A
C202        H207   1.085       .  S
C203        C204   1.401       .  A
C203        C789   1.480       .  S
C204        C205   1.412       .  A
C204        H208   1.079       .  S
C205        C206   1.419   1_556  A
C205        C212   1.508       .  S
C206        H209   1.081       .  S
C210        C211   1.401       .  A
C210        C215   1.393   1_554  A
C210        C821   1.469       .  S
C211        C212   1.414   1_554  A
C211        H216   1.081       .  S
C212        C213   1.422       .  A
C213        C214   1.404       .  A
C213        H217   1.078       .  S
C214        C215   1.390       .  A
C214       C1301   1.482       .  S
C215        H218   1.085       .  S
C219        C220   1.397       .  A
C219        C224   1.406       .  A
C219       C1278   1.478       .  S
C220        C221   1.390       .  A
C220        H225   1.085       .  S
C221        C222   1.399       .  A
C221        C725   1.481       .  S
C222        C223   1.420       .  A
C222        H226   1.078       .  S
C223        C224   1.419       .  A
C223        C230   1.512       .  S
C224        H227   1.079       .  S
C228        C229   1.410   1_554  A
C228        C233   1.397       .  A
C228        C661   1.484       .  S
C229        C230   1.421       .  A
C229        H234   1.079       .  S
C230        C231   1.416       .  A
C231        C232   1.395   1_556  A
C231        H235   1.078       .  S
C232        C233   1.390       .  A
C232        C702   1.474       .  S
C233        H236   1.085       .  S
Zn237       O241   1.948       .  S
Zn237       O242   2.007       .  S
Zn237       O246   2.014       .  S
Zn237       O253   1.995       .  S
Zn238       O241   1.962       .  S
Zn238       O243   2.032       .  S
Zn238       O245   2.054       .  S
Zn238       O249   2.056       .  S
Zn239       O241   1.949       .  S
Zn239       O244   1.996       .  S
Zn239       O247   2.017       .  S
Zn239       O250   2.036       .  S
Zn240       O241   1.937       .  S
Zn240       O248   2.006       .  S
Zn240       O251   1.990       .  S
Zn240       O252   2.000       .  S
O242        C254   1.275       .  A
O243        C255   1.275       .  A
O244        C256   1.272       .  A
O245        C254   1.277       .  A
O246        C256   1.270       .  A
O247        C255   1.277       .  A
O248        C257   1.269       .  A
O249        C258   1.278       .  A
O250        C257   1.276       .  A
O251        C258   1.271       .  A
O252        C259   1.272       .  A
O253        C259   1.268       .  A
C254        C606   1.499       .  S
C255        C629   1.502       .  S
C256       C1813   1.494       .  S
C257        C734   1.495       .  S
C258        C958   1.484       .  S
C259        C798   1.479       .  S
C260        C261   1.402       .  A
C260        C265   1.395   1_545  A
C260        C565   1.475       .  S
C261        C262   1.417   1_545  A
C261        H266   1.078       .  S
C262        C263   1.421       .  A
C262        C273   1.513   1_565  S
C263        C264   1.403       .  A
C263        H267   1.079       .  S
C264        C265   1.393       .  A
C264        C533   1.481       .  S
C265        H268   1.085       .  S
C269        C270   1.392       .  A
C269        C274   1.405       .  A
C269        C638   1.477       .  S
C270        C271   1.386   1_545  A
C270        H275   1.086       .  S
C271        C272   1.399       .  A
C271       C1214   1.470       .  S
C272        C273   1.417   1_565  A
C272        H276   1.079       .  S
C273        C274   1.423       .  A
C274        H277   1.078       .  S
Zn278       O282   1.964       .  S
Zn278       O283   2.038       .  S
Zn278       O287   2.033       .  S
Zn278       O294   2.047       .  S
Zn279       O282   1.960       .  S
Zn279       O284   2.027       .  S
Zn279       O286   2.013       .  S
Zn279       O290   2.028       .  S
Zn280       O282   1.960       .  S
Zn280       O285   2.019       .  S
Zn280       O288   2.034       .  S
Zn280       O291   2.019       .  S
Zn281       O282   1.950       .  S
Zn281       O289   1.997       .  S
Zn281       O292   2.002       .  S
Zn281       O293   2.009       .  S
O283        C295   1.279       .  A
O284        C296   1.274       .  A
O285        C297   1.274       .  A
O286        C295   1.273       .  A
O287        C297   1.277       .  A
O288        C296   1.275       .  A
O289        C298   1.272       .  A
O290        C299   1.272       .  A
O291        C298   1.273       .  A
O292        C299   1.271       .  A
O293        C300   1.271       .  A
O294        C300   1.275       .  A
C295        C766   1.485       .  S
C296        C574   1.483       .  S
C297       C1086   1.487       .  S
C298        C501   1.470       .  S
C299        C693   1.474       .  S
C300        C926   1.479       .  S
C301        C302   1.404       .  A
C301        C306   1.395       .  A
C301       C1054   1.473       .  S
C302        C303   1.417       .  A
C302        H307   1.080       .  S
C303        C304   1.417       .  A
C303        C312   1.505       .  S
C304        C305   1.400       .  A
C304        H308   1.080       .  S
C305        C306   1.390       .  A
C305        C478   1.477       .  S
C306        H309   1.085       .  S
C310        C311   1.406   1_545  A
C310        C315   1.395       .  A
C310        C862   1.477       .  S
C311        C312   1.419       .  A
C311        H316   1.080       .  S
C312        C313   1.417       .  A
C313        C314   1.397   1_565  A
C313        H317   1.080       .  S
C314        C315   1.387       .  A
C314        C510   1.472       .  S
C315        H318   1.085       .  S
Zn319       O323   1.967       .  S
Zn319       O324   2.050       .  S
Zn319       O328   2.039       .  S
Zn319       O335   2.047       .  S
Zn320       O323   1.943       .  S
Zn320       O325   2.003       .  S
Zn320       O327   2.019       .  S
Zn320       O331   2.017       .  S
Zn321       O323   1.944       .  S
Zn321       O326   1.996       .  S
Zn321       O329   2.015       .  S
Zn321       O332   2.009       .  S
Zn322       O323   1.943       .  S
Zn322       O330   2.023       .  S
Zn322       O333   2.016       .  S
Zn322       O334   1.988       .  S
O324        C336   1.276       .  A
O325        C337   1.272       .  A
O326        C338   1.272       .  A
O327        C336   1.276       .  A
O328        C338   1.278       .  A
O329        C337   1.272       .  A
O330        C339   1.274       .  A
O331        C340   1.272       .  A
O332        C339   1.268       .  A
O333        C340   1.274       .  A
O334        C341   1.274       .  A
O335        C341   1.277       .  A
C336        C670   1.498       .  S
C337        C469   1.483       .  S
C338       C1150   1.489       .  S
C339       C1685   1.501       .  S
C340        C542   1.489       .  S
C341       C1566   1.492       .  S
C342        C343   1.409       .  A
C342        C347   1.396       .  A
C342        C597   1.478       .  S
C343        C344   1.421       .  A
C343        H348   1.079       .  S
C344        C345   1.420       .  A
C344        C353   1.516       .  S
C345        C346   1.396       .  A
C345        H349   1.077       .  S
C346        C347   1.389       .  A
C346       C1333   1.476       .  S
C347        H350   1.085       .  S
C351        C352   1.411       .  A
C351        C356   1.395       .  A
C351       C1246   1.478       .  S
C352        C353   1.423       .  A
C352        H357   1.078       .  S
C353        C354   1.417       .  A
C354        C355   1.394       .  A
C354        H358   1.077       .  S
C355        C356   1.385       .  A
C355        C437   1.470       .  S
C356        H359   1.085       .  S
C360        C361   1.401       .  A
C360        C365   1.409       .  A
C360        C885   1.485       .  S
C361        C362   1.392       .  A
C361        H366   1.083       .  S
C362        C363   1.399       .  A
C362       C1022   1.484       .  S
C363        C364   1.417       .  A
C363        H367   1.081       .  S
C364        C365   1.414       .  A
C364        C373   1.504       .  S
C365        H368   1.082       .  S
C369        C370   1.396       .  A
C369        C374   1.411       .  A
C369       C1365   1.480       .  S
C370        C371   1.387       .  A
C370        H375   1.085       .  S
C371        C372   1.395       .  A
C371        C405   1.472       .  S
C372        C373   1.413       .  A
C372        H376   1.081       .  S
C373        C374   1.421       .  A
C374        H377   1.081       .  S
Zn378       O382   1.963       .  S
Zn378       O383   2.057       .  S
Zn378       O387   2.038       .  S
Zn378       O394   2.054       .  S
Zn379       O382   1.951       .  S
Zn379       O384   2.019       .  S
Zn379       O386   1.998       .  S
Zn379       O390   2.022       .  S
Zn380       O382   1.953       .  S
Zn380       O385   2.015       .  S
Zn380       O388   2.014       .  S
Zn380       O391   2.043       .  S
Zn381       O382   1.923       .  S
Zn381       O389   1.987       .  S
Zn381       O392   1.978       .  S
Zn381       O393   1.966       .  S
O383        C395   1.280       .  A
O384        C396   1.274       .  A
O385        C397   1.274       .  A
O386        C395   1.271       .  A
O387        C397   1.278       .  A
O388        C396   1.273       .  A
O389        C398   1.268       .  A
O390        C399   1.271       .  A
O391        C398   1.275       .  A
O392        C399   1.270       .  A
O393        C400   1.269       .  A
O394        C400   1.276       .  A
C395       C1502   1.489       .  S
C396       C1886   1.469       .  S
C397       C1758   1.487       .  S
C398       C1621   1.483       .  S
C399        C446   1.482       .  S
C400        C414   1.486       .  S
C401        C402   1.403       .  A
C401        C406   1.404       .  A
C401        H411   1.083       .  S
C402        C403   1.415       .  A
C402        C407   1.479       .  S
C403        C404   1.405       .  A
C403        C408   1.519       .  S
C404        C405   1.402       .  A
C404        H409   1.083       .  S
C405        C406   1.414       .  A
C406        C410   1.519       .  S
C407        C412   1.412       .  A
C407        C416   1.403       .  A
C408        F424   1.382       .  S
C408        F425   1.382       .  S
C408        F426   1.384       .  S
C410        F421   1.384       .  S
C410        F422   1.384       .  S
C410        F423   1.382       .  S
C412        C413   1.401       .  A
C412        C417   1.523       .  S
C413        C414   1.408       .  A
C413        H418   1.083       .  S
C414        C415   1.419       .  A
C415        C416   1.409       .  A
C415        C419   1.517       .  S
C416        H420   1.083       .  S
C417        F430   1.385       .  S
C417        F431   1.382       .  S
C417        F432   1.382       .  S
C419        F427   1.383       .  S
C419        F428   1.383       .  S
C419        F429   1.385       .  S
C433        C434   1.401       .  A
C433        C438   1.400       .  A
C433        H443   1.084       .  S
C434        C435   1.414       .  A
C434        C439   1.474       .  S
C435        C436   1.406       .  A
C435        C440   1.519       .  S
C436        C437   1.403       .  A
C436        H441   1.083       .  S
C437        C438   1.413       .  A
C438        C442   1.518       .  S
C439        C444   1.412       .  A
C439        C448   1.401       .  A
C440        F456   1.382       .  S
C440        F457   1.382       .  S
C440        F458   1.385       .  S
C442        F453   1.383       .  S
C442        F454   1.384       .  S
C442        F455   1.382       .  S
C444        C445   1.400       .  A
C444        C449   1.522       .  S
C445        C446   1.407       .  A
C445        H450   1.083       .  S
C446        C447   1.420       .  A
C447        C448   1.407       .  A
C447        C451   1.518       .  S
C448        H452   1.083       .  S
C449        F462   1.385       .  S
C449        F463   1.382       .  S
C449        F464   1.382       .  S
C451        F459   1.385       .  S
C451        F460   1.383       .  S
C451        F461   1.383       .  S
C465        C466   1.402       .  A
C465        C470   1.407       .  A
C465        H475   1.083       .  S
C466        C467   1.412       .  A
C466        C471   1.480       .  S
C467        C468   1.404       .  A
C467        C472   1.521       .  S
C468        C469   1.408       .  A
C468        H473   1.083       .  S
C469        C470   1.419       .  A
C470        C474   1.519       .  S
C471        C476   1.415       .  A
C471        C480   1.403       .  A
C472        F488   1.382       .  S
C472        F489   1.382       .  S
C472        F490   1.384       .  S
C474        F485   1.384       .  S
C474        F486   1.384       .  S
C474        F487   1.383       .  S
C476        C477   1.404       .  A
C476        C481   1.520       .  S
C477        C478   1.402   1_455  A
C477        H482   1.083   1_455  S
C478        C479   1.415       .  A
C479        C480   1.406   1_655  A
C479        C483   1.518       .  S
C480        H484   1.083       .  S
C481        F494   1.385       .  S
C481        F495   1.382       .  S
C481        F496   1.382       .  S
C483        F491   1.381       .  S
C483        F492   1.383       .  S
C483        F493   1.385       .  S
C497        C498   1.402       .  A
C497        C502   1.406       .  A
C497        H507   1.083       .  S
C498        C499   1.415       .  A
C498        C503   1.478       .  S
C499        C500   1.402       .  A
C499        C504   1.520       .  S
C500        C501   1.401       .  A
C500        H505   1.084       .  S
C501        C502   1.415       .  A
C502        C506   1.517       .  S
C503        C508   1.416       .  A
C503        C512   1.402       .  A
C504        F520   1.382       .  S
C504        F521   1.383       .  S
C504        F522   1.384       .  S
C506        F517   1.382       .  S
C506        F518   1.385       .  S
C506        F519   1.382       .  S
C508        C509   1.404   1_455  A
C508        C513   1.520       .  S
C509        C510   1.401       .  A
C509        H514   1.083       .  S
C510        C511   1.413       .  A
C511        C512   1.404   1_655  A
C511        C515   1.517       .  S
C512        H516   1.083       .  S
C513        F526   1.384       .  S
C513        F527   1.382       .  S
C513        F528   1.383       .  S
C515        F523   1.383       .  S
C515        F524   1.383   1_545  S
C515        F525   1.385       .  S
C529        C530   1.402       .  A
C529        C534   1.406       .  A
C529        H539   1.083       .  S
C530        C531   1.416       .  A
C530        C535   1.485       .  S
C531        C532   1.409       .  A
C531        C536   1.519       .  S
C532        C533   1.403       .  A
C532        H537   1.083       .  S
C533        C534   1.416       .  A
C534        C538   1.518       .  S
C535        C540   1.414       .  A
C535        C544   1.402       .  A
C536        F552   1.382       .  S
C536        F553   1.382       .  S
C536        F554   1.384       .  S
C538        F549   1.385       .  S
C538        F550   1.382       .  S
C538        F551   1.383       .  S
C540        C541   1.406       .  A
C540        C545   1.520       .  S
C541        C542   1.408       .  A
C541        H546   1.083       .  S
C542        C543   1.422       .  A
C543        C544   1.409       .  A
C543        C547   1.520       .  S
C544        H548   1.083       .  S
C545        F558   1.385       .  S
C545        F559   1.382       .  S
C545        F560   1.382       .  S
C547        F555   1.385       .  S
C547        F556   1.383       .  S
C547        F557   1.384       .  S
C561        C562   1.404       .  A
C561        C566   1.407       .  A
C561        H571   1.084       .  S
C562        C563   1.417       .  A
C562        C567   1.483       .  S
C563        C564   1.404       .  A
C563        C568   1.521       .  S
C564        C565   1.401       .  A
C564        H569   1.084       .  S
C565        C566   1.415       .  A
C566        C570   1.516       .  S
C567        C572   1.414       .  A
C567        C576   1.400       .  A
C568        F584   1.382       .  S
C568        F585   1.381       .  S
C568        F586   1.385       .  S
C570        F581   1.384       .  S
C570        F582   1.382       .  S
C570        F583   1.383       .  S
C572        C573   1.412       .  A
C572        C577   1.518       .  S
C573        C574   1.406       .  A
C573        H578   1.083       .  S
C574        C575   1.420       .  A
C575        C576   1.405       .  A
C575        C579   1.518       .  S
C576        H580   1.083       .  S
C577        F590   1.384       .  S
C577        F591   1.383       .  S
C577        F592   1.381       .  S
C579        F587   1.385       .  S
C579        F588   1.381       .  S
C579        F589   1.383       .  S
C593        C594   1.401       .  A
C593        C598   1.404       .  A
C593        H603   1.083       .  S
C594        C595   1.415       .  A
C594        C599   1.486       .  S
C595        C596   1.411       .  A
C595        C600   1.517       .  S
C596        C597   1.403       .  A
C596        H601   1.083       .  S
C597        C598   1.416       .  A
C598        C602   1.520       .  S
C599        C604   1.416       .  A
C599        C608   1.401       .  A
C600        F616   1.383       .  S
C600        F617   1.381       .  S
C600        F618   1.385       .  S
C602        F613   1.382       .  S
C602        F614   1.384       .  S
C602        F615   1.383       .  S
C604        C605   1.406       .  A
C604        C609   1.524       .  S
C605        C606   1.409       .  A
C605        H610   1.082       .  S
C606        C607   1.426       .  A
C607        C608   1.413       .  A
C607        C611   1.519       .  S
C608        H612   1.083       .  S
C609        F622   1.385       .  S
C609        F623   1.382       .  S
C609        F624   1.381       .  S
C611        F619   1.385       .  S
C611        F620   1.384       .  S
C611        F621   1.383       .  S
C625        C626   1.397       .  A
C625        C630   1.411       .  A
C625        H635   1.083       .  S
C626        C627   1.414       .  A
C626        C631   1.483       .  S
C627        C628   1.404       .  A
C627        C632   1.524       .  S
C628        C629   1.411       .  A
C628        H633   1.082       .  S
C629        C630   1.430       .  A
C630        C634   1.520       .  S
C631        C636   1.414       .  A
C631        C640   1.401       .  A
C632        F648   1.382       .  S
C632        F649   1.382       .  S
C632        F650   1.385       .  S
C634        F645   1.383       .  S
C634        F646   1.385       .  S
C634        F647   1.384       .  S
C636        C637   1.406       .  A
C636        C641   1.518       .  S
C637        C638   1.403       .  A
C637        H642   1.083       .  S
C638        C639   1.417       .  A
C639        C640   1.406       .  A
C639        C643   1.519       .  S
C640        H644   1.083       .  S
C641        F654   1.384       .  S
C641        F655   1.383       .  S
C641        F656   1.382       .  S
C643        F651   1.384       .  S
C643        F652   1.383       .  S
C643        F653   1.383       .  S
C657        C658   1.406       .  A
C657        C662   1.411       .  A
C657        H667   1.083       .  S
C658        C659   1.419       .  A
C658        C663   1.495       .  S
C659        C660   1.406       .  A
C659        C664   1.520       .  S
C660        C661   1.403       .  A
C660        H665   1.083       .  S
C661        C662   1.416       .  A
C662        C666   1.519       .  S
C663        C668   1.418       .  A
C663        C672   1.404       .  A
C664        F680   1.382       .  S
C664        F681   1.383       .  S
C664        F682   1.385       .  S
C666        F677   1.384       .  S
C666        F678   1.382   1_554  S
C666        F679   1.384       .  S
C668        C669   1.406       .  A
C668        C673   1.523       .  S
C669        C670   1.407       .  A
C669        H674   1.082       .  S
C670        C671   1.424       .  A
C671        C672   1.414       .  A
C671        C675   1.519       .  S
C672        H676   1.082       .  S
C673        F686   1.384       .  S
C673        F687   1.382       .  S
C673        F688   1.383       .  S
C675        F683   1.382       .  S
C675        F684   1.384       .  S
C675        F685   1.385       .  S
C689        C690   1.403       .  A
C689        C694   1.406       .  A
C689        H699   1.083   1_545  S
C690        C691   1.416       .  A
C690        C695   1.480   1_545  S
C691        C692   1.405       .  A
C691        C696   1.521       .  S
C692        C693   1.402       .  A
C692        H697   1.083       .  S
C693        C694   1.415       .  A
C694        C698   1.516       .  S
C695        C700   1.415       .  A
C695        C704   1.404       .  A
C696        F712   1.381       .  S
C696        F713   1.381       .  S
C696        F714   1.385       .  S
C698        F709   1.381       .  S
C698        F710   1.385       .  S
C698        F711   1.383       .  S
C700        C701   1.405       .  A
C700        C705   1.519       .  S
C701        C702   1.402       .  A
C701        H706   1.083       .  S
C702        C703   1.412       .  A
C703        C704   1.405       .  A
C703        C707   1.517       .  S
C704        H708   1.083       .  S
C705        F718   1.385       .  S
C705        F719   1.382       .  S
C705        F720   1.381   1_565  S
C707        F715   1.385       .  S
C707        F716   1.383       .  S
C707        F717   1.382   1_554  S
C721        C722   1.400       .  A
C721        C726   1.405       .  A
C721        H731   1.083       .  S
C722        C723   1.417       .  A
C722        C727   1.484   1_565  S
C723        C724   1.409       .  A
C723        C728   1.520       .  S
C724        C725   1.404       .  A
C724        H729   1.083       .  S
C725        C726   1.418       .  A
C726        C730   1.519       .  S
C727        C732   1.414       .  A
C727        C736   1.398       .  A
C728        F744   1.382   1_565  S
C728        F745   1.381       .  S
C728        F746   1.385       .  S
C730        F741   1.384       .  S
C730        F742   1.382       .  S
C730        F743   1.383       .  S
C732        C733   1.409       .  A
C732        C737   1.519   1_545  S
C733        C734   1.409       .  A
C733        H738   1.083       .  S
C734        C735   1.429       .  A
C735        C736   1.407       .  A
C735        C739   1.523       .  S
C736        H740   1.083       .  S
C737        F750   1.385       .  S
C737        F751   1.382       .  S
C737        F752   1.381       .  S
C739        F747   1.383       .  S
C739        F748   1.383       .  S
C739        F749   1.385       .  S
C753        C754   1.403       .  A
C753        C758   1.406       .  A
C753        H763   1.083       .  S
C754        C755   1.415       .  A
C754        C759   1.486       .  S
C755        C756   1.408       .  A
C755        C760   1.518       .  S
C756        C757   1.403       .  A
C756        H761   1.083       .  S
C757        C758   1.415       .  A
C758        C762   1.518       .  S
C759        C764   1.417       .  A
C759        C768   1.402       .  A
C760        F776   1.382       .  S
C760        F777   1.383       .  S
C760        F778   1.384       .  S
C762        F773   1.382       .  S
C762        F774   1.384       .  S
C762        F775   1.383       .  S
C764        C765   1.405       .  A
C764        C769   1.522       .  S
C765        C766   1.404       .  A
C765        H770   1.083       .  S
C766        C767   1.421       .  A
C767        C768   1.410       .  A
C767        C771   1.518       .  S
C768        H772   1.083       .  S
C769        F782   1.384       .  S
C769        F783   1.382       .  S
C769        F784   1.383       .  S
C771        F779   1.382       .  S
C771        F780   1.384       .  S
C771        F781   1.385       .  S
C785        C786   1.400       .  A
C785        C790   1.403       .  A
C785        H795   1.085       .  S
C786        C787   1.413       .  A
C786        C791   1.474       .  S
C787        C788   1.401       .  A
C787        C792   1.521       .  S
C788        C789   1.406       .  A
C788        H793   1.083       .  S
C789        C790   1.420       .  A
C790        C794   1.518       .  S
C791        C796   1.413       .  A
C791        C800   1.399       .  A
C792        F808   1.382       .  S
C792        F809   1.382       .  S
C792        F810   1.385       .  S
C794        F805   1.384       .  S
C794        F806   1.382       .  S
C794        F807   1.383       .  S
C796        C797   1.402       .  A
C796        C801   1.521       .  S
C797        C798   1.406       .  A
C797        H802   1.083       .  S
C798        C799   1.422       .  A
C799        C800   1.404       .  A
C799        C803   1.520       .  S
C800        H804   1.083       .  S
C801        F814   1.385       .  S
C801        F815   1.382       .  S
C801        F816   1.382       .  S
C803        F811   1.384       .  S
C803        F812   1.383       .  S
C803        F813   1.385       .  S
C817        C818   1.401       .  A
C817        C822   1.402       .  A
C817        H827   1.084       .  S
C818        C819   1.416       .  A
C818        C823   1.475       .  S
C819        C820   1.404       .  A
C819        C824   1.519       .  S
C820        C821   1.400       .  A
C820        H825   1.083       .  S
C821        C822   1.413       .  A
C822        C826   1.515       .  S
C823        C828   1.414       .  A
C823        C832   1.403       .  A
C824        F840   1.383       .  S
C824        F841   1.381       .  S
C824        F842   1.385       .  S
C826        F837   1.384       .  S
C826        F838   1.383       .  S
C826        F839   1.384       .  S
C828        C829   1.402       .  A
C828        C833   1.518       .  S
C829        C830   1.403       .  A
C829        H834   1.085       .  S
C830        C831   1.417       .  A
C831        C832   1.404       .  A
C831        C835   1.521       .  S
C832        H836   1.084       .  S
C833        F846   1.383       .  S
C833        F847   1.383       .  S
C833        F848   1.382       .  S
C835        F843   1.385       .  S
C835        F844   1.383       .  S
C835        F845   1.384       .  S
C849        C850   1.400       .  A
C849        C854   1.403       .  A
C849        H859   1.083       .  S
C850        C851   1.411       .  A
C850        C855   1.477       .  S
C851        C852   1.406       .  A
C851        C856   1.518       .  S
C852        C853   1.408       .  A
C852        H857   1.083       .  S
C853        C854   1.421       .  A
C854        C858   1.521       .  S
C855        C860   1.416       .  A
C855        C864   1.402       .  A
C856        F872   1.382       .  S
C856        F873   1.382       .  S
C856        F874   1.385       .  S
C858        F869   1.385       .  S
C858        F870   1.383       .  S
C858        F871   1.383       .  S
C860        C861   1.402       .  A
C860        C865   1.523       .  S
C861        C862   1.404       .  A
C861        H866   1.084       .  S
C862        C863   1.415       .  A
C863        C864   1.408       .  A
C863        C867   1.516       .  S
C864        H868   1.083       .  S
C865        F878   1.385       .  S
C865        F879   1.383       .  S
C865        F880   1.381       .  S
C867        F875   1.383       .  S
C867        F876   1.382       .  S
C867        F877   1.385       .  S
C881        C882   1.399       .  A
C881        C886   1.401       .  A
C881        H891   1.085       .  S
C882        C883   1.417       .  A
C882        C887   1.482       .  S
C883        C884   1.409       .  A
C883        C888   1.519       .  S
C884        C885   1.405       .  A
C884        H889   1.083       .  S
C885        C886   1.420       .  A
C886        C890   1.518       .  S
C887        C892   1.416       .  A
C887        C896   1.400       .  A
C888        F904   1.382       .  S
C888        F905   1.382       .  S
C888        F906   1.385       .  S
C890        F901   1.384       .  S
C890        F902   1.383       .  S
C890        F903   1.383       .  S
C892        C893   1.411       .  A
C892        C897   1.519       .  S
C893        C894   1.405       .  A
C893        H898   1.083       .  S
C894        C895   1.416       .  A
C895        C896   1.401       .  A
C895        C899   1.521       .  S
C896        H900   1.084       .  S
C897        F910   1.384       .  S
C897        F911   1.382       .  S
C897        F912   1.382       .  S
C899        F907   1.384       .  S
C899        F908   1.382       .  S
C899        F909   1.384       .  S
C913        C914   1.403       .  A
C913        C918   1.409       .  A
C913        H923   1.084       .  S
C914        C915   1.417       .  A
C914        C919   1.491   1_556  S
C915        C916   1.408       .  A
C915        C920   1.520   1_556  S
C916        C917   1.406       .  A
C916        H921   1.083       .  S
C917        C918   1.420       .  A
C918        C922   1.517       .  S
C919        C924   1.418       .  A
C919        C928   1.403       .  A
C920        F936   1.382       .  S
C920        F937   1.382       .  S
C920        F938   1.385       .  S
C922        F933   1.384       .  S
C922        F934   1.383       .  S
C922        F935   1.382       .  S
C924        C925   1.410       .  A
C924        C929   1.519   1_554  S
C925        C926   1.402       .  A
C925        H930   1.083       .  S
C926        C927   1.416       .  A
C927        C928   1.410       .  A
C927        C931   1.518       .  S
C928        H932   1.083       .  S
C929        F942   1.384       .  S
C929        F943   1.382       .  S
C929        F944   1.382       .  S
C931        F939   1.384       .  S
C931        F940   1.383       .  S
C931        F941   1.383       .  S
C945        C946   1.404       .  A
C945        C950   1.412       .  A
C945        H955   1.083       .  S
C946        C947   1.418       .  A
C946        C951   1.489       .  S
C947        C948   1.406       .  A
C947        C952   1.521       .  S
C948        C949   1.404       .  A
C948        H953   1.083       .  S
C949        C950   1.418       .  A
C950        C954   1.516       .  S
C951        C956   1.416       .  A
C951        C960   1.401       .  A
C952        F968   1.382       .  S
C952        F969   1.382       .  S
C952        F970   1.385       .  S
C954        F965   1.382       .  S
C954        F966   1.383       .  S
C954        F967   1.385       .  S
C956        C957   1.412       .  A
C956        C961   1.516       .  S
C957        C958   1.406       .  A
C957        H962   1.083       .  S
C958        C959   1.420       .  A
C959        C960   1.404       .  A
C959        C963   1.521       .  S
C960        H964   1.084       .  S
C961        F974   1.385       .  S
C961        F975   1.382       .  S
C961        F976   1.382       .  S
C963        F971   1.384       .  S
C963        F972   1.383       .  S
C963        F973   1.385       .  S
C977        C978   1.403       .  A
C977        C982   1.410       .  A
C977        H987   1.083       .  S
C978        C979   1.416       .  A
C978        C983   1.485   1_554  S
C979        C980   1.405       .  A
C979        C984   1.519   1_554  S
C980        C981   1.401       .  A
C980        H985   1.083       .  S
C981        C982   1.419       .  A
C982        C986   1.519       .  S
C983        C988   1.415       .  A
C983        C992   1.401       .  A
C984       F1000   1.382       .  S
C984       F1001   1.382       .  S
C984       F1002   1.384       .  S
C986        F997   1.385       .  S
C986        F998   1.382       .  S
C986        F999   1.383       .  S
C988        C989   1.407       .  A
C988        C993   1.519   1_556  S
C989        C990   1.408       .  A
C989        H994   1.083       .  S
C990        C991   1.422       .  A
C991        C992   1.406       .  A
C991        C995   1.517       .  S
C992        H996   1.085       .  S
C993       F1006   1.385       .  S
C993       F1007   1.383       .  S
C993       F1008   1.382       .  S
C995       F1003   1.384       .  S
C995       F1004   1.382       .  S
C995       F1005   1.383       .  S
C1009      C1010   1.396       .  A
C1009      C1014   1.404       .  A
C1009      H1019   1.083       .  S
C1010      C1011   1.415       .  A
C1010      C1015   1.483       .  S
C1011      C1012   1.409       .  A
C1011      C1016   1.519       .  S
C1012      C1013   1.407       .  A
C1012      H1017   1.083       .  S
C1013      C1014   1.428       .  A
C1014      C1018   1.523       .  S
C1015      C1020   1.416       .  A
C1015      C1024   1.400       .  A
C1016      F1032   1.382       .  S
C1016      F1033   1.382       .  S
C1016      F1034   1.385       .  S
C1018      F1029   1.385       .  S
C1018      F1030   1.384       .  S
C1018      F1031   1.383       .  S
C1020      C1021   1.407       .  A
C1020      C1025   1.519       .  S
C1021      C1022   1.404       .  A
C1021      H1026   1.083       .  S
C1022      C1023   1.419       .  A
C1023      C1024   1.407       .  A
C1023      C1027   1.519       .  S
C1024      H1028   1.083       .  S
C1025      F1038   1.385       .  S
C1025      F1039   1.382       .  S
C1025      F1040   1.382       .  S
C1027      F1035   1.385       .  S
C1027      F1036   1.381       .  S
C1027      F1037   1.383       .  S
C1041      C1042   1.403       .  A
C1041      C1046   1.408       .  A
C1041      H1051   1.083       .  S
C1042      C1043   1.418       .  A
C1042      C1047   1.480       .  S
C1043      C1044   1.402       .  A
C1043      C1048   1.522       .  S
C1044      C1045   1.399       .  A
C1044      H1049   1.084       .  S
C1045      C1046   1.413       .  A
C1046      C1050   1.516       .  S
C1047      C1052   1.414       .  A
C1047      C1056   1.402       .  A
C1048      F1064   1.382       .  S
C1048      F1065   1.382       .  S
C1048      F1066   1.385       .  S
C1050      F1061   1.385       .  S
C1050      F1062   1.383       .  S
C1050      F1063   1.383       .  S
C1052      C1053   1.405       .  A
C1052      C1057   1.518       .  S
C1053      C1054   1.402       .  A
C1053      H1058   1.083       .  S
C1054      C1055   1.414       .  A
C1055      C1056   1.406       .  A
C1055      C1059   1.518       .  S
C1056      H1060   1.083       .  S
C1057      F1070   1.384       .  S
C1057      F1071   1.382       .  S
C1057      F1072   1.383       .  S
C1059      F1067   1.384       .  S
C1059      F1068   1.383       .  S
C1059      F1069   1.383       .  S
C1073      C1074   1.405       .  A
C1073      C1078   1.409       .  A
C1073      H1083   1.083       .  S
C1074      C1075   1.421       .  A
C1074      C1079   1.483       .  S
C1075      C1076   1.403       .  A
C1075      C1080   1.521       .  S
C1076      C1077   1.400       .  A
C1076      H1081   1.085       .  S
C1077      C1078   1.413       .  A
C1078      C1082   1.516       .  S
C1079      C1084   1.412       .  A
C1079      C1088   1.400       .  A
C1080      F1096   1.384       .  S
C1080      F1097   1.381       .  S
C1080      F1098   1.383       .  S
C1082      F1093   1.384       .  S
C1082      F1094   1.383       .  S
C1082      F1095   1.383       .  S
C1084      C1085   1.410       .  A
C1084      C1089   1.515       .  S
C1085      C1086   1.407       .  A
C1085      H1090   1.083       .  S
C1086      C1087   1.423       .  A
C1087      C1088   1.406       .  A
C1087      C1091   1.520       .  S
C1088      H1092   1.083       .  S
C1089      F1102   1.384       .  S
C1089      F1103   1.383       .  S
C1089      F1104   1.382       .  S
C1091      F1099   1.383       .  S
C1091      F1100   1.383       .  S
C1091      F1101   1.385       .  S
C1105      C1106   1.398       .  A
C1105      C1110   1.403       .  A
C1105      H1115   1.083       .  S
C1106      C1107   1.415       .  A
C1106      C1111   1.479       .  S
C1107      C1108   1.407       .  A
C1107      C1112   1.519       .  S
C1108      C1109   1.406       .  A
C1108      H1113   1.083       .  S
C1109      C1110   1.422       .  A
C1110      C1114   1.521       .  S
C1111      C1116   1.417       .  A
C1111      C1120   1.401       .  A
C1112      F1128   1.382       .  S
C1112      F1129   1.382       .  S
C1112      F1130   1.385       .  S
C1114      F1125   1.382       .  S
C1114      F1126   1.385       .  S
C1114      F1127   1.384       .  S
C1116      C1117   1.404       .  A
C1116      C1121   1.519       .  S
C1117      C1118   1.401       .  A
C1117      H1122   1.084   1_655  S
C1118      C1119   1.414       .  A
C1119      C1120   1.405       .  A
C1119      C1123   1.517       .  S
C1120      H1124   1.083       .  S
C1121      F1134   1.385       .  S
C1121      F1135   1.382       .  S
C1121      F1136   1.382       .  S
C1123      F1131   1.382       .  S
C1123      F1132   1.383   1_655  S
C1123      F1133   1.385       .  S
C1137      C1138   1.403       .  A
C1137      C1142   1.404       .  A
C1137      H1147   1.085       .  S
C1138      C1139   1.420       .  A
C1138      C1143   1.480       .  S
C1139      C1140   1.403       .  A
C1139      C1144   1.521       .  S
C1140      C1141   1.401       .  A
C1140      H1145   1.085       .  S
C1141      C1142   1.415       .  A
C1142      C1146   1.517       .  S
C1143      C1148   1.412       .  A
C1143      C1152   1.399       .  A
C1144      F1160   1.384       .  S
C1144      F1161   1.380       .  S
C1144      F1162   1.383       .  S
C1146      F1157   1.383       .  S
C1146      F1158   1.383       .  S
C1146      F1159   1.382       .  S
C1148      C1149   1.409       .  A
C1148      C1153   1.517       .  S
C1149      C1150   1.410       .  A
C1149      H1154   1.083       .  S
C1150      C1151   1.425       .  A
C1151      C1152   1.403       .  A
C1151      C1155   1.522       .  S
C1152      H1156   1.084       .  S
C1153      F1166   1.384       .  S
C1153      F1167   1.383       .  S
C1153      F1168   1.382       .  S
C1155      F1163   1.384       .  S
C1155      F1164   1.383       .  S
C1155      F1165   1.385       .  S
C1169      C1170   1.399       .  A
C1169      C1174   1.403       .  A
C1169      H1179   1.083       .  S
C1170      C1171   1.417       .  A
C1170      C1175   1.481       .  S
C1171      C1172   1.409       .  A
C1171      C1176   1.519       .  S
C1172      C1173   1.403       .  A
C1172      H1177   1.083       .  S
C1173      C1174   1.418       .  A
C1174      C1178   1.520       .  S
C1175      C1180   1.417       .  A
C1175      C1184   1.402       .  A
C1176      F1192   1.382       .  S
C1176      F1193   1.382       .  S
C1176      F1194   1.385       .  S
C1178      F1189   1.382       .  S
C1178      F1190   1.385       .  S
C1178      F1191   1.384       .  S
C1180      C1181   1.405       .  A
C1180      C1185   1.520       .  S
C1181      C1182   1.400       .  A
C1181      H1186   1.083   1_655  S
C1182      C1183   1.414       .  A
C1183      C1184   1.407       .  A
C1183      C1187   1.517       .  S
C1184      H1188   1.083       .  S
C1185      F1198   1.385       .  S
C1185      F1199   1.382       .  S
C1185      F1200   1.382       .  S
C1187      F1195   1.383       .  S
C1187      F1196   1.383   1_655  S
C1187      F1197   1.385       .  S
C1201      C1202   1.397       .  A
C1201      C1206   1.401       .  A
C1201      H1211   1.084       .  S
C1202      C1203   1.412       .  A
C1202      C1207   1.473       .  S
C1203      C1204   1.405       .  A
C1203      C1208   1.519       .  S
C1204      C1205   1.407       .  A
C1204      H1209   1.083       .  S
C1205      C1206   1.423       .  A
C1206      C1210   1.523       .  S
C1207      C1212   1.416       .  A
C1207      C1216   1.402       .  A
C1208      F1224   1.382       .  S
C1208      F1225   1.381       .  S
C1208      F1226   1.385       .  S
C1210      F1221   1.385       .  S
C1210      F1222   1.383       .  S
C1210      F1223   1.384       .  S
C1212      C1213   1.402       .  A
C1212      C1217   1.521       .  S
C1213      C1214   1.401       .  A
C1213      H1218   1.084       .  S
C1214      C1215   1.412       .  A
C1215      C1216   1.404       .  A
C1215      C1219   1.516       .  S
C1216      H1220   1.083       .  S
C1217      F1230   1.385       .  S
C1217      F1231   1.382       .  S
C1217      F1232   1.382       .  S
C1219      F1227   1.382       .  S
C1219      F1228   1.383       .  S
C1219      F1229   1.385       .  S
C1233      C1234   1.399       .  A
C1233      C1238   1.412       .  A
C1233      H1243   1.083       .  S
C1234      C1235   1.414       .  A
C1234      C1239   1.483       .  S
C1235      C1236   1.402       .  A
C1235      C1240   1.524       .  S
C1236      C1237   1.411       .  A
C1236      H1241   1.082       .  S
C1237      C1238   1.428       .  A
C1238      C1242   1.520       .  S
C1239      C1244   1.414       .  A
C1239      C1248   1.402       .  A
C1240      F1256   1.382       .  S
C1240      F1257   1.382       .  S
C1240      F1258   1.385       .  S
C1242      F1253   1.383       .  S
C1242      F1254   1.385       .  S
C1242      F1255   1.383       .  S
C1244      C1245   1.407       .  A
C1244      C1249   1.519       .  S
C1245      C1246   1.405       .  A
C1245      H1250   1.083       .  S
C1246      C1247   1.417       .  A
C1247      C1248   1.406       .  A
C1247      C1251   1.519       .  S
C1248      H1252   1.083       .  S
C1249      F1262   1.384       .  S
C1249      F1263   1.382       .  S
C1249      F1264   1.383       .  S
C1251      F1259   1.384       .  S
C1251      F1260   1.382       .  S
C1251      F1261   1.382       .  S
C1265      C1266   1.398       .  A
C1265      C1270   1.404       .  A
C1265      H1275   1.084       .  S
C1266      C1267   1.412       .  A
C1266      C1271   1.485       .  S
C1267      C1268   1.412       .  A
C1267      C1272   1.517       .  S
C1268      C1269   1.411       .  A
C1268      H1273   1.082       .  S
C1269      C1270   1.428       .  A
C1270      C1274   1.524       .  S
C1271      C1276   1.418       .  A
C1271      C1280   1.404       .  A
C1272      F1288   1.382       .  S
C1272      F1289   1.381       .  S
C1272      F1290   1.384       .  S
C1274      F1285   1.385       .  S
C1274      F1286   1.384       .  S
C1274      F1287   1.383       .  S
C1276      C1277   1.405       .  A
C1276      C1281   1.521       .  S
C1277      C1278   1.402       .  A
C1277      H1282   1.084       .  S
C1278      C1279   1.414       .  A
C1279      C1280   1.408       .  A
C1279      C1283   1.517       .  S
C1280      H1284   1.083       .  S
C1281      F1294   1.385       .  S
C1281      F1295   1.382       .  S
C1281      F1296   1.381       .  S
C1283      F1291   1.383       .  S
C1283      F1292   1.382       .  S
C1283      F1293   1.384       .  S
C1297      C1298   1.405       .  A
C1297      C1302   1.411       .  A
C1297      H1307   1.083       .  S
C1298      C1299   1.416       .  A
C1298      C1303   1.484       .  S
C1299      C1300   1.403       .  A
C1299      C1304   1.521       .  S
C1300      C1301   1.403       .  A
C1300      H1305   1.084       .  S
C1301      C1302   1.415       .  A
C1302      C1306   1.517       .  S
C1303      C1308   1.414       .  A
C1303      C1312   1.397       .  A
C1304      F1320   1.382       .  S
C1304      F1321   1.383       .  S
C1304      F1322   1.385       .  S
C1306      F1317   1.384       .  S
C1306      F1318   1.384       .  S
C1306      F1319   1.381       .  S
C1308      C1309   1.410       .  A
C1308      C1313   1.519       .  S
C1309      C1310   1.409       .  A
C1309      H1314   1.083       .  S
C1310      C1311   1.426       .  A
C1311      C1312   1.404       .  A
C1311      C1315   1.522       .  S
C1312      H1316   1.083       .  S
C1313      F1326   1.385       .  S
C1313      F1327   1.382       .  S
C1313      F1328   1.382       .  S
C1315      F1323   1.384       .  S
C1315      F1324   1.383       .  S
C1315      F1325   1.385       .  S
C1329      C1330   1.404       .  A
C1329      C1334   1.408       .  A
C1329      H1339   1.083       .  S
C1330      C1331   1.417       .  A
C1330      C1335   1.483       .  S
C1331      C1332   1.404       .  A
C1331      C1336   1.519       .  S
C1332      C1333   1.400       .  A
C1332      H1337   1.083       .  S
C1333      C1334   1.413       .  A
C1334      C1338   1.517       .  S
C1335      C1340   1.415       .  A
C1335      C1344   1.399       .  A
C1336      F1352   1.382       .  S
C1336      F1353   1.381       .  S
C1336      F1354   1.385       .  S
C1338      F1349   1.383       .  S
C1338      F1350   1.385       .  S
C1338      F1351   1.383       .  S
C1340      C1341   1.410       .  A
C1340      C1345   1.520       .  S
C1341      C1342   1.406       .  A
C1341      H1346   1.083       .  S
C1342      C1343   1.422       .  A
C1343      C1344   1.407       .  A
C1343      C1347   1.520       .  S
C1344      H1348   1.083       .  S
C1345      F1358   1.384       .  S
C1345      F1359   1.383       .  S
C1345      F1360   1.382       .  S
C1347      F1355   1.385       .  S
C1347      F1356   1.384       .  S
C1347      F1357   1.382       .  S
C1361      C1362   1.403       .  A
C1361      C1366   1.409       .  A
C1361      H1371   1.083       .  S
C1362      C1363   1.415       .  A
C1362      C1367   1.488       .  S
C1363      C1364   1.407       .  A
C1363      C1368   1.518       .  S
C1364      C1365   1.404       .  A
C1364      H1369   1.083       .  S
C1365      C1366   1.416       .  A
C1366      C1370   1.518       .  S
C1367      C1372   1.419       .  A
C1367      C1376   1.403       .  A
C1368      F1384   1.382       .  S
C1368      F1385   1.383       .  S
C1368      F1386   1.384       .  S
C1370      F1381   1.385       .  S
C1370      F1382   1.383       .  S
C1370      F1383   1.383       .  S
C1372      C1373   1.407       .  A
C1372      C1377   1.521       .  S
C1373      C1374   1.401       .  A
C1373      H1378   1.083       .  S
C1374      C1375   1.416       .  A
C1375      C1376   1.411       .  A
C1375      C1379   1.516       .  S
C1376      H1380   1.083       .  S
C1377      F1390   1.385       .  S
C1377      F1391   1.382       .  S
C1377      F1392   1.382       .  S
C1379      F1387   1.385       .  S
C1379      F1388   1.383       .  S
C1379      F1389   1.383       .  S
C1393      C1394   1.401       .  A
C1393      C1398   1.408       .  A
C1393      H1403   1.083       .  S
C1394      C1395   1.415       .  A
C1394      C1399   1.492       .  S
C1395      C1396   1.412       .  A
C1395      C1400   1.517       .  S
C1396      C1397   1.408       .  A
C1396      H1401   1.083       .  S
C1397      C1398   1.425       .  A
C1398      C1402   1.522       .  S
C1399      C1404   1.418       .  A
C1399      C1408   1.402       .  A
C1400      F1416   1.383       .  S
C1400      F1417   1.382       .  S
C1400      F1418   1.384       .  S
C1402      F1413   1.384       .  S
C1402      F1414   1.383       .  S
C1402      F1415   1.383       .  S
C1404      C1405   1.410       .  A
C1404      C1409   1.519       .  S
C1405      C1406   1.404       .  A
C1405      H1410   1.083       .  S
C1406      C1407   1.420       .  A
C1407      C1408   1.408       .  A
C1407      C1411   1.517       .  S
C1408      H1412   1.084       .  S
C1409      F1422   1.384       .  S
C1409      F1423   1.382       .  S
C1409      F1424   1.382       .  S
C1411      F1419   1.383       .  S
C1411      F1420   1.381       .  S
C1411      F1421   1.384       .  S
C1425      C1426   1.403       .  A
C1425      C1430   1.407       .  A
C1425      H1435   1.083       .  S
C1426      C1427   1.417       .  A
C1426      C1431   1.486       .  S
C1427      C1428   1.408       .  A
C1427      C1432   1.519       .  S
C1428      C1429   1.401       .  A
C1428      H1433   1.083       .  S
C1429      C1430   1.414       .  A
C1430      C1434   1.517       .  S
C1431      C1436   1.417       .  A
C1431      C1440   1.404       .  A
C1432      F1448   1.383       .  S
C1432      F1449   1.382       .  S
C1432      F1450   1.385       .  S
C1434      F1445   1.383       .  S
C1434      F1446   1.384       .  S
C1434      F1447   1.384       .  S
C1436      C1437   1.404       .  A
C1436      C1441   1.520       .  S
C1437      C1438   1.402       .  A
C1437      H1442   1.083       .  S
C1438      C1439   1.418       .  A
C1439      C1440   1.411       .  A
C1439      C1443   1.518       .  S
C1440      H1444   1.083       .  S
C1441      F1454   1.385       .  S
C1441      F1455   1.382       .  S
C1441      F1456   1.382       .  S
C1443      F1451   1.383       .  S
C1443      F1452   1.382       .  S
C1443      F1453   1.385       .  S
C1457      C1458   1.400       .  A
C1457      C1462   1.411       .  A
C1457      H1467   1.083       .  S
C1458      C1459   1.416       .  A
C1458      C1463   1.484       .  S
C1459      C1460   1.406       .  A
C1459      C1464   1.522       .  S
C1460      C1461   1.405       .  A
C1460      H1465   1.083       .  S
C1461      C1462   1.425       .  A
C1462      C1466   1.519       .  S
C1463      C1468   1.415       .  A
C1463      C1472   1.402       .  A
C1464      F1480   1.382       .  S
C1464      F1481   1.382       .  S
C1464      F1482   1.384       .  S
C1466      F1477   1.385       .  S
C1466      F1478   1.383       .  S
C1466      F1479   1.384       .  S
C1468      C1469   1.409       .  A
C1468      C1473   1.517       .  S
C1469      C1470   1.404       .  A
C1469      H1474   1.083       .  S
C1470      C1471   1.414       .  A
C1471      C1472   1.405       .  A
C1471      C1475   1.517       .  S
C1472      H1476   1.083       .  S
C1473      F1486   1.385       .  S
C1473      F1487   1.383       .  S
C1473      F1488   1.382       .  S
C1475      F1483   1.385       .  S
C1475      F1484   1.383       .  S
C1475      F1485   1.382       .  S
C1489      C1490   1.403       .  A
C1489      C1494   1.407       .  A
C1489      H1499   1.083       .  S
C1490      C1491   1.415       .  A
C1490      C1495   1.486       .  S
C1491      C1492   1.408       .  A
C1491      C1496   1.518       .  S
C1492      C1493   1.403       .  A
C1492      H1497   1.083       .  S
C1493      C1494   1.414       .  A
C1494      C1498   1.517       .  S
C1495      C1500   1.417       .  A
C1495      C1504   1.400       .  A
C1496      F1512   1.383       .  S
C1496      F1513   1.382       .  S
C1496      F1514   1.384       .  S
C1498      F1509   1.383       .  S
C1498      F1510   1.384       .  S
C1498      F1511   1.383       .  S
C1500      C1501   1.407       .  A
C1500      C1505   1.521       .  S
C1501      C1502   1.405       .  A
C1501      H1506   1.083       .  S
C1502      C1503   1.424       .  A
C1503      C1504   1.410       .  A
C1503      C1507   1.519       .  S
C1504      H1508   1.083       .  S
C1505      F1518   1.384       .  S
C1505      F1519   1.383       .  S
C1505      F1520   1.382       .  S
C1507      F1515   1.383       .  S
C1507      F1516   1.383       .  S
C1507      F1517   1.385       .  S
C1521      C1522   1.404       .  A
C1521      C1526   1.410       .  A
C1521      H1531   1.083       .  S
C1522      C1523   1.418       .  A
C1522      C1527   1.486       .  S
C1523      C1524   1.405       .  A
C1523      C1528   1.520       .  S
C1524      C1525   1.401       .  A
C1524      H1529   1.083       .  S
C1525      C1526   1.415       .  A
C1526      C1530   1.516       .  S
C1527      C1532   1.417       .  A
C1527      C1536   1.400       .  A
C1528      F1544   1.382       .  S
C1528      F1545   1.383       .  S
C1528      F1546   1.385       .  S
C1530      F1541   1.384       .  S
C1530      F1542   1.383       .  S
C1530      F1543   1.382       .  S
C1532      C1533   1.409       .  A
C1532      C1537   1.518       .  S
C1533      C1534   1.402       .  A
C1533      H1538   1.083       .  S
C1534      C1535   1.419       .  A
C1535      C1536   1.406       .  A
C1535      C1539   1.519       .  S
C1536      H1540   1.083       .  S
C1537      F1550   1.384       .  S
C1537      F1551   1.383       .  S
C1537      F1552   1.382       .  S
C1539      F1547   1.385       .  S
C1539      F1548   1.383       .  S
C1539      F1549   1.382       .  S
C1553      C1554   1.402       .  A
C1553      C1558   1.407       .  A
C1553      H1563   1.083       .  S
C1554      C1555   1.416       .  A
C1554      C1559   1.488       .  S
C1555      C1556   1.408       .  A
C1555      C1560   1.518       .  S
C1556      C1557   1.404       .  A
C1556      H1561   1.083       .  S
C1557      C1558   1.417       .  A
C1558      C1562   1.518       .  S
C1559      C1564   1.417       .  A
C1559      C1568   1.405       .  A
C1560      F1576   1.382       .  S
C1560      F1577   1.383       .  S
C1560      F1578   1.384       .  S
C1562      F1573   1.383       .  S
C1562      F1574   1.385       .  S
C1562      F1575   1.382       .  S
C1564      C1565   1.399       .  A
C1564      C1569   1.524       .  S
C1565      C1566   1.406       .  A
C1565      H1570   1.082       .  S
C1566      C1567   1.422       .  A
C1567      C1568   1.414       .  A
C1567      C1571   1.518       .  S
C1568      H1572   1.082       .  S
C1569      F1582   1.385       .  S
C1569      F1583   1.381       .  S
C1569      F1584   1.383       .  S
C1571      F1579   1.383       .  S
C1571      F1580   1.384       .  S
C1571      F1581   1.385       .  S
C1585      C1586   1.402       .  A
C1585      C1590   1.408       .  A
C1585      H1595   1.083       .  S
C1586      C1587   1.413       .  A
C1586      C1591   1.485       .  S
C1587      C1588   1.407       .  A
C1587      C1592   1.521       .  S
C1588      C1589   1.409       .  A
C1588      H1593   1.083       .  S
C1589      C1590   1.419       .  A
C1590      C1594   1.518       .  S
C1591      C1596   1.417       .  A
C1591      C1600   1.404       .  A
C1592      F1608   1.382       .  S
C1592      F1609   1.382       .  S
C1592      F1610   1.385       .  S
C1594      F1605   1.384       .  S
C1594      F1606   1.383       .  S
C1594      F1607   1.384       .  S
C1596      C1597   1.406       .  A
C1596      C1601   1.520       .  S
C1597      C1598   1.401       .  A
C1597      H1602   1.083       .  S
C1598      C1599   1.414       .  A
C1599      C1600   1.408       .  A
C1599      C1603   1.517       .  S
C1600      H1604   1.083       .  S
C1601      F1614   1.384       .  S
C1601      F1615   1.382       .  S
C1601      F1616   1.382       .  S
C1603      F1611   1.382       .  S
C1603      F1612   1.384       .  S
C1603      F1613   1.384       .  S
C1617      C1618   1.398       .  A
C1617      C1622   1.404       .  A
C1617      H1627   1.083       .  S
C1618      C1619   1.416       .  A
C1618      C1623   1.483       .  S
C1619      C1620   1.410       .  A
C1619      C1624   1.519       .  S
C1620      C1621   1.406       .  A
C1620      H1625   1.083       .  S
C1621      C1622   1.422       .  A
C1622      C1626   1.520       .  S
C1623      C1628   1.418       .  A
C1623      C1632   1.402       .  A
C1624      F1640   1.382       .  S
C1624      F1641   1.383       .  S
C1624      F1642   1.385       .  S
C1626      F1637   1.383       .  S
C1626      F1638   1.385       .  S
C1626      F1639   1.383       .  S
C1628      C1629   1.405       .  A
C1628      C1633   1.519       .  S
C1629      C1630   1.400       .  A
C1629      H1634   1.083       .  S
C1630      C1631   1.415       .  A
C1631      C1632   1.406       .  A
C1631      C1635   1.517       .  S
C1632      H1636   1.083       .  S
C1633      F1646   1.385       .  S
C1633      F1647   1.382       .  S
C1633      F1648   1.383       .  S
C1635      F1643   1.385       .  S
C1635      F1644   1.383       .  S
C1635      F1645   1.382       .  S
C1649      C1650   1.401       .  A
C1649      C1654   1.404       .  A
C1649      H1659   1.083       .  S
C1650      C1651   1.411       .  A
C1650      C1655   1.481       .  S
C1651      C1652   1.409       .  A
C1651      C1656   1.518       .  S
C1652      C1653   1.407       .  A
C1652      H1657   1.083       .  S
C1653      C1654   1.420       .  A
C1654      C1658   1.521       .  S
C1655      C1660   1.417       .  A
C1655      C1664   1.403       .  A
C1656      F1672   1.383       .  S
C1656      F1673   1.381       .  S
C1656      F1674   1.384       .  S
C1658      F1669   1.383       .  S
C1658      F1670   1.385       .  S
C1658      F1671   1.383       .  S
C1660      C1661   1.404       .  A
C1660      C1665   1.523       .  S
C1661      C1662   1.402       .  A
C1661      H1666   1.083       .  S
C1662      C1663   1.414       .  A
C1663      C1664   1.408       .  A
C1663      C1667   1.516       .  S
C1664      H1668   1.083       .  S
C1665      F1678   1.384       .  S
C1665      F1679   1.382       .  S
C1665      F1680   1.380       .  S
C1667      F1675   1.384       .  S
C1667      F1676   1.382       .  S
C1667      F1677   1.383       .  S
C1681      C1682   1.398       .  A
C1681      C1686   1.409       .  A
C1681      H1691   1.083       .  S
C1682      C1683   1.413       .  A
C1682      C1687   1.486       .  S
C1683      C1684   1.406       .  A
C1683      C1688   1.520       .  S
C1684      C1685   1.411       .  A
C1684      H1689   1.082       .  S
C1685      C1686   1.431       .  A
C1686      C1690   1.522       .  S
C1687      C1692   1.417       .  A
C1687      C1696   1.403       .  A
C1688      F1704   1.382       .  S
C1688      F1705   1.382       .  S
C1688      F1706   1.385       .  S
C1690      F1701   1.385       .  S
C1690      F1702   1.384       .  S
C1690      F1703   1.383       .  S
C1692      C1693   1.405       .  A
C1692      C1697   1.520       .  S
C1693      C1694   1.402       .  A
C1693      H1698   1.083       .  S
C1694      C1695   1.418       .  A
C1695      C1696   1.409       .  A
C1695      C1699   1.518       .  S
C1696      H1700   1.083       .  S
C1697      F1710   1.385       .  S
C1697      F1711   1.382       .  S
C1697      F1712   1.383       .  S
C1699      F1707   1.383       .  S
C1699      F1708   1.381       .  S
C1699      F1709   1.385       .  S
C1713      C1714   1.400       .  A
C1713      C1718   1.414       .  A
C1713      H1723   1.083       .  S
C1714      C1715   1.415       .  A
C1714      C1719   1.486       .  S
C1715      C1716   1.405       .  A
C1715      C1720   1.525       .  S
C1716      C1717   1.411       .  A
C1716      H1721   1.082       .  S
C1717      C1718   1.427       .  A
C1718      C1722   1.519       .  S
C1719      C1724   1.414       .  A
C1719      C1728   1.404       .  A
C1720      F1736   1.383       .  S
C1720      F1737   1.381       .  S
C1720      F1738   1.384       .  S
C1722      F1733   1.383       .  S
C1722      F1734   1.385       .  S
C1722      F1735   1.384       .  S
C1724      C1725   1.407       .  A
C1724      C1729   1.519       .  S
C1725      C1726   1.403       .  A
C1725      H1730   1.083       .  S
C1726      C1727   1.414       .  A
C1727      C1728   1.408       .  A
C1727      C1731   1.516       .  S
C1728      H1732   1.083       .  S
C1729      F1742   1.385       .  S
C1729      F1743   1.382       .  S
C1729      F1744   1.382       .  S
C1731      F1739   1.383       .  S
C1731      F1740   1.384       .  S
C1731      F1741   1.383       .  S
C1745      C1746   1.403       .  A
C1745      C1750   1.408       .  A
C1745      H1755   1.083       .  S
C1746      C1747   1.418       .  A
C1746      C1751   1.487       .  S
C1747      C1748   1.408       .  A
C1747      C1752   1.520       .  S
C1748      C1749   1.402       .  A
C1748      H1753   1.083       .  S
C1749      C1750   1.415       .  A
C1750      C1754   1.516       .  S
C1751      C1756   1.414       .  A
C1751      C1760   1.400       .  A
C1752      F1768   1.382       .  S
C1752      F1769   1.382       .  S
C1752      F1770   1.384       .  S
C1754      F1765   1.383       .  S
C1754      F1766   1.384       .  S
C1754      F1767   1.383       .  S
C1756      C1757   1.410       .  A
C1756      C1761   1.517       .  S
C1757      C1758   1.407       .  A
C1757      H1762   1.083       .  S
C1758      C1759   1.423       .  A
C1759      C1760   1.406       .  A
C1759      C1763   1.522       .  S
C1760      H1764   1.083       .  S
C1761      F1774   1.385       .  S
C1761      F1775   1.383       .  S
C1761      F1776   1.382       .  S
C1763      F1771   1.385       .  S
C1763      F1772   1.383       .  S
C1763      F1773   1.383       .  S
C1777      C1778   1.404       .  A
C1777      C1782   1.410       .  A
C1777      H1787   1.083       .  S
C1778      C1779   1.418       .  A
C1778      C1783   1.485       .  S
C1779      C1780   1.403       .  A
C1779      C1784   1.521       .  S
C1780      C1781   1.399       .  A
C1780      H1785   1.083       .  S
C1781      C1782   1.414       .  A
C1782      C1786   1.516       .  S
C1783      C1788   1.416       .  A
C1783      C1792   1.400       .  A
C1784      F1800   1.382       .  S
C1784      F1801   1.383       .  S
C1784      F1802   1.384       .  S
C1786      F1797   1.383       .  S
C1786      F1798   1.385       .  S
C1786      F1799   1.383       .  S
C1788      C1789   1.409       .  A
C1788      C1793   1.518       .  S
C1789      C1790   1.403       .  A
C1789      H1794   1.083       .  S
C1790      C1791   1.419       .  A
C1791      C1792   1.405       .  A
C1791      C1795   1.520       .  S
C1792      H1796   1.083       .  S
C1793      F1806   1.384       .  S
C1793      F1807   1.382       .  S
C1793      F1808   1.383       .  S
C1795      F1803   1.385       .  S
C1795      F1804   1.384       .  S
C1795      F1805   1.383       .  S
C1809      C1810   1.400       .  A
C1809      C1814   1.407       .  A
C1809      H1819   1.083       .  S
C1810      C1811   1.410       .  A
C1810      C1815   1.479       .  S
C1811      C1812   1.403       .  A
C1811      C1816   1.521       .  S
C1812      C1813   1.412       .  A
C1812      H1817   1.082       .  S
C1813      C1814   1.426       .  A
C1814      C1818   1.521       .  S
C1815      C1820   1.416       .  A
C1815      C1824   1.403       .  A
C1816      F1832   1.382       .  S
C1816      F1833   1.382       .  S
C1816      F1834   1.385       .  S
C1818      F1829   1.385       .  S
C1818      F1830   1.383       .  S
C1818      F1831   1.383       .  S
C1820      C1821   1.403       .  A
C1820      C1825   1.520       .  S
C1821      C1822   1.401       .  A
C1821      H1826   1.084       .  S
C1822      C1823   1.412       .  A
C1823      C1824   1.406       .  A
C1823      C1827   1.516       .  S
C1824      H1828   1.083       .  S
C1825      F1838   1.384       .  S
C1825      F1839   1.382       .  S
C1825      F1840   1.383       .  S
C1827      F1835   1.382       .  S
C1827      F1836   1.383   1_545  S
C1827      F1837   1.384       .  S
C1841      C1842   1.402       .  A
C1841      C1846   1.410       .  A
C1841      H1851   1.083       .  S
C1842      C1843   1.417       .  A
C1842      C1847   1.483       .  S
C1843      C1844   1.404       .  A
C1843      C1848   1.523       .  S
C1844      C1845   1.402       .  A
C1844      H1849   1.083       .  S
C1845      C1846   1.420       .  A
C1846      C1850   1.518       .  S
C1847      C1852   1.414       .  A
C1847      C1856   1.402       .  A
C1848      F1864   1.383       .  S
C1848      F1865   1.380       .  S
C1848      F1866   1.385       .  S
C1850      F1861   1.385       .  S
C1850      F1862   1.383       .  S
C1850      F1863   1.383       .  S
C1852      C1853   1.407       .  A
C1852      C1857   1.518       .  S
C1853      C1854   1.403       .  A
C1853      H1858   1.083       .  S
C1854      C1855   1.414       .  A
C1855      C1856   1.406       .  A
C1855      C1859   1.516       .  S
C1856      H1860   1.083       .  S
C1857      F1870   1.385       .  S
C1857      F1871   1.383       .  S
C1857      F1872   1.381       .  S
C1859      F1867   1.385       .  S
C1859      F1868   1.383   1_545  S
C1859      F1869   1.382       .  S
C1873      C1874   1.401       .  A
C1873      C1878   1.403       .  A
C1873      H1883   1.084       .  S
C1874      C1875   1.418       .  A
C1874      C1879   1.483       .  S
C1875      C1876   1.407       .  A
C1875      C1880   1.520       .  S
C1876      C1877   1.402       .  A
C1876      H1881   1.084       .  S
C1877      C1878   1.417       .  A
C1878      C1882   1.518       .  S
C1879      C1884   1.416       .  A
C1879      C1888   1.402       .  A
C1880      F1896   1.382       .  S
C1880      F1897   1.382       .  S
C1880      F1898   1.384       .  S
C1882      F1893   1.383       .  S
C1882      F1894   1.383       .  S
C1882      F1895   1.383       .  S
C1884      C1885   1.410       .  A
C1884      C1889   1.517       .  S
C1885      C1886   1.402       .  A
C1885      H1890   1.083       .  S
C1886      C1887   1.413       .  A
C1887      C1888   1.402       .  A
C1887      C1891   1.519       .  S
C1888      H1892   1.083       .  S
C1889      F1902   1.384       .  S
C1889      F1903   1.382       .  S
C1889      F1904   1.382       .  S
C1891      F1899   1.383       .  S
C1891      F1900   1.383       .  S
C1891      F1901   1.385       .  S
C1905      C1906   1.402       .  A
C1905      C1910   1.403       .  A
C1905      H1915   1.085       .  S
C1906      C1907   1.414       .  A
C1906      C1911   1.476       .  S
C1907      C1908   1.403       .  A
C1907      C1912   1.521       .  S
C1908      C1909   1.403       .  A
C1908      H1913   1.084       .  S
C1909      C1910   1.415       .  A
C1910      C1914   1.518       .  S
C1911      C1916   1.410       .  A
C1911      C1920   1.400       .  A
C1912      F1928   1.382       .  S
C1912      F1929   1.382       .  S
C1912      F1930   1.384       .  S
C1914      F1925   1.384       .  S
C1914      F1926   1.383       .  S
C1914      F1927   1.382       .  S
C1916      C1917   1.401       .  A
C1916      C1921   1.522       .  S
C1917      C1918   1.411       .  A
C1917      H1922   1.082       .  S
C1918      C1919   1.424       .  A
C1919      C1920   1.407       .  A
C1919      C1923   1.520       .  S
C1920      H1924   1.083       .  S
C1921      F1934   1.385       .  S
C1921      F1935   1.382       .  S
C1921      F1936   1.382       .  S
C1923      F1931   1.383       .  S
C1923      F1932   1.384       .  S
C1923      F1933   1.385       .  S
