geometry optimzed in LAMMPS
_audit_creation_date              2020-11-30 
_audit_creation_method            'lammps2cif' 
_symmetry_space_group_name_H-M    'P1' 
_symmetry_Int_Tables_number       1 
_symmetry_cell_setting            triclinic 
loop_ 
_symmetry_equiv_pos_as_xyz 
  x,y,z 
_cell_length_a                    42.53973278 
_cell_length_b                    42.46305975194398 
_cell_length_c                    26.35762696175575 
_cell_angle_alpha                 89.55449251662975 
_cell_angle_beta                  90.54941470422321 
_cell_angle_gamma                 90.06211324265814 
loop_ 
_atom_site_label 
_atom_site_type_symbol 
_atom_site_fract_x 
_atom_site_fract_y 
_atom_site_fract_z 
_atom_site_charge 
Zn1        Zn  0.77115621  0.10373826  0.94512502     1.49700
Zn2        Zn  0.79116997  0.05705352  0.03502605     1.49400
Zn3        Zn  0.84139999  0.07772573  0.95223660     1.49100
Zn4        Zn  0.81576376  0.12942284  0.03241659     1.49500
O5          O  0.80510330  0.09209913  0.99150936    -1.83400
O6          O  0.73368237  0.07614127  0.95641234    -0.74000
O7          O  0.81590066  0.01716380  0.02269313    -0.73800
O8          O  0.83232214  0.07916183  0.87660182    -0.73300
O9          O  0.74559083  0.04586047  0.02262514    -0.74000
O10         O  0.78384385  0.09816312  0.87306493    -0.73600
O11         O  0.85314278  0.03241073  0.96942882    -0.74200
O12         O  0.86158365  0.14165367  0.02059478    -0.73600
O13         O  0.79644860  0.06896483  0.10834996    -0.74300
O14         O  0.87870210  0.10567534  0.96614076    -0.73700
O15         O  0.81216700  0.11888922  0.10705053    -0.74200
O16         O  0.78538215  0.16645490  0.01829518    -0.74100
O17         O  0.75590847  0.14829112  0.95509471    -0.73900
C18         C  0.72616270  0.05502220  0.98862057     0.77900
C19         C  0.84008458  0.01113753  0.99639309     0.78400
C20         C  0.80819040  0.08780700  0.85111643     0.77400
C21         C  0.88337332  0.12973712  0.99380738     0.77700
C22         C  0.80458714  0.09400922  0.13138522     0.78900
C23         C  0.76273295  0.16994125  0.98650989     0.77900
Zn24       Zn  0.83965249  0.07363708  0.53115393     1.49700
Zn25       Zn  0.81273598  0.12664061  0.45242747     1.49400
Zn26       Zn  0.79027120  0.05346296  0.44490574     1.49100
Zn27       Zn  0.76860763  0.09576345  0.53639054     1.49500
O28         O  0.80305498  0.08755913  0.49078214    -1.83400
O29         O  0.87575800  0.10336705  0.52106670    -0.74000
O30         O  0.80998529  0.11819928  0.37674091    -0.73800
O31         O  0.81799713  0.01520384  0.45399524    -0.73300
O32         O  0.85789335  0.14050601  0.46794804    -0.74000
O33         O  0.85326035  0.02954526  0.51194628    -0.73600
O34         O  0.79460724  0.06819013  0.37292278    -0.74200
O35         O  0.73289294  0.06579348  0.52457820    -0.73600
O36         O  0.78166135  0.16241421  0.46872893    -0.74300
O37         O  0.74540983  0.03840649  0.45648004    -0.73700
O38         O  0.75205133  0.13972265  0.52752102    -0.74200
O39         O  0.78194552  0.09106917  0.60882136    -0.74100
O40         O  0.83099914  0.07381995  0.60648216    -0.73900
C41         C  0.87974009  0.12860136  0.49558104     0.77900
C42         C  0.80267354  0.09382402  0.35118711     0.78400
C43         C  0.84198087  0.00908783  0.48160253     0.77400
C44         C  0.72624695  0.04496615  0.49170376     0.77700
C45         C  0.75888939  0.16346406  0.49995635     0.78900
C46         C  0.80694662  0.08208002  0.63142722     0.77900
Zn47       Zn  0.60279476  0.27234489  0.05162912     1.49700
Zn48       Zn  0.62395178  0.31923564  0.96306021     1.49400
Zn49       Zn  0.55315778  0.29357765  0.96547770     1.49100
Zn50       Zn  0.57545384  0.34258632  0.04893372     1.49500
O51         O  0.58891231  0.30701913  0.00723553    -1.83400
O52         O  0.64660827  0.25748962  0.03397136    -0.74000
O53         O  0.60990329  0.32045532  0.88918404    -0.73800
O54         O  0.54254747  0.24842432  0.97942015    -0.73300
O55         O  0.66035807  0.28745538  0.96826375    -0.74000
O56         O  0.57395447  0.23466473  0.04360985    -0.73600
O57         O  0.56265847  0.29792554  0.89086019    -0.74200
O58         O  0.52951385  0.35434416  0.03621836    -0.73600
O59         O  0.63895970  0.36309684  0.98145726    -0.74300
O60         O  0.51403224  0.31878680  0.98004455    -0.73700
O61         O  0.60294201  0.38025558  0.03519466    -0.74200
O62         O  0.58097162  0.33253960  0.12352381    -0.74100
O63         O  0.60274492  0.28509111  0.12508794    -0.73900
C64         C  0.66589212  0.26470816  0.99905799     0.77900
C65         C  0.58558871  0.30976756  0.86652133     0.78400
C66         C  0.55198859  0.22826048  0.01207932     0.77400
C67         C  0.50810948  0.34219285  0.00832136     0.77700
C68         C  0.62765940  0.38478683  0.00914633     0.78900
C69         C  0.59274349  0.30934695  0.14802492     0.77900
Zn70       Zn  0.62702409  0.31578538  0.46849458     1.49700
Zn71       Zn  0.55551156  0.29073878  0.45887218     1.49400
Zn72       Zn  0.59866079  0.26971570  0.55274568     1.49100
Zn73       Zn  0.57355776  0.34023132  0.54492571     1.49500
O74         O  0.58880995  0.30423699  0.50614941    -1.83400
O75         O  0.61857264  0.31362538  0.39305432    -0.74000
O76         O  0.54645914  0.24416170  0.46605154    -0.73800
O77         O  0.64314796  0.25455555  0.54280537    -0.73300
O78         O  0.56835279  0.29912340  0.38687343    -0.74000
O79         O  0.66335367  0.28518617  0.48275043    -0.73600
O80         O  0.57142644  0.23196631  0.53789087    -0.74200
O81         O  0.57739127  0.33222901  0.62088536    -0.73600
O82         O  0.51464261  0.31389194  0.47051464    -0.74300
O83         O  0.59295310  0.28237518  0.62589780    -0.73700
O84         O  0.52767569  0.34924173  0.52854573    -0.74200
O85         O  0.59900066  0.37904595  0.52848095    -0.74100
O86         O  0.63899165  0.36137024  0.48310905    -0.73900
C87         C  0.59417695  0.30731914  0.36669410     0.77900
C88         C  0.55337853  0.22445153  0.50105325     0.78400
C89         C  0.66561980  0.26178297  0.51325821     0.77400
C90         C  0.58486778  0.30796876  0.64711184     0.77700
C91         C  0.50733232  0.33681661  0.49893954     0.78900
C92         C  0.62470548  0.38383738  0.50514215     0.77900
Zn93       Zn  0.53221106  0.04096089  0.95305581     1.49700
Zn94       Zn  0.48385591  0.03777048  0.04357356     1.49400
Zn95       Zn  0.48136812  0.98900094  0.95359395     1.49100
Zn96       Zn  0.53856157  0.98427298  0.03492916     1.49500
O97         O  0.50924360  0.01274817  0.99724833    -1.83400
O98         O  0.52460321  0.08586380  0.96956215    -0.74000
O99         O  0.43684650  0.02908609  0.03501032    -0.73800
O100        O  0.48736398  0.99752268  0.87986738    -0.73300
O101        O  0.49439420  0.08456761  0.03796696    -0.74000
O102        O  0.52395510  0.03443435  0.87910707    -0.85600
O103        O  0.43642915  0.99588565  0.97025074    -0.74200
O104        O  0.52930057  0.93810714  0.01688119    -0.73600
O105        O  0.49392205  0.02468259  0.11417639    -0.74300
O106        O  0.48918896  0.94363357  0.96297245    -0.73700
O107        O  0.53165469  0.98862681  0.11134860    -0.74200
O108        O  0.58464003  0.99571996  0.01926271    -0.74100
O109        O  0.57763200  0.03452504  0.96350711    -0.73900
C110        C  0.51077264  0.09967693  0.00559933     0.77900
C111        C  0.42212378  0.01134652  0.00399850     0.78400
C112        C  0.50554856  0.01585498  0.85572464     0.77400
C113        C  0.50819930  0.92629804  0.98785211     0.77700
C114        C  0.51248821  0.00551272  0.13636427     0.78900
C115        C  0.59571341  0.01688325  0.98960766     0.77900
Zn116      Zn  0.48314642  0.03501764  0.45177638     1.49700
Zn117      Zn  0.48380733  0.98332552  0.54088141     1.49400
Zn118      Zn  0.53623125  0.97906179  0.45491895     1.49100
Zn119      Zn  0.53756561  0.03230708  0.53821860     1.49500
O120        O  0.51001029  0.00761167  0.49536260    -1.83400
O121        O  0.43565750  0.02807323  0.46704250    -0.74000
O122        O  0.48812702  0.93763597  0.52809656    -0.73800
O123        O  0.52842753  0.98732273  0.38118709    -0.73300
O124        O  0.43887117  0.99324831  0.53007893    -0.74000
O125        O  0.49093976  0.02379949  0.37785746    -0.73600
O126        O  0.52377830  0.93347788  0.46740974    -0.74200
O127        O  0.58247689  0.02239269  0.52621331    -0.73600
O128        O  0.49241485  0.99105640  0.61414391    -0.74300
O129        O  0.58345599  0.98571847  0.46681400    -0.73700
O130        O  0.52955591  0.02738964  0.61245757    -0.74200
O131        O  0.53229295  0.07737684  0.52231739    -0.74100
O132        O  0.49579849  0.08164615  0.46161899    -0.73900
C133        C  0.42256560  0.01035440  0.50023678     0.77900
C134        C  0.50403561  0.92108142  0.49773288     0.78400
C135        C  0.50985817  0.00503223  0.35590885     0.77400
C136        C  0.59766369  0.00446510  0.49687874     0.77700
C137        C  0.51078058  0.00989262  0.63702405     0.78900
C138        C  0.51587531  0.09403436  0.49193899     0.77900
Zn139      Zn  0.42109000  0.75075684  0.94285056     1.49700
Zn140      Zn  0.44823575  0.68073633  0.94980449     1.49400
Zn141      Zn  0.46875549  0.73136883  0.03281142     1.49100
Zn142      Zn  0.39796442  0.70483182  0.03122193     1.49500
O143        O  0.43398693  0.71687101  0.98923900    -1.83400
O144        O  0.42188561  0.73654854  0.86995211    -0.74000
O145        O  0.49342918  0.66977545  0.96614272    -0.73800
O146        O  0.47894790  0.77681667  0.01945006    -0.73300
O147        O  0.44455949  0.68939790  0.87412563    -0.74000
O148        O  0.44984342  0.78847226  0.95152695    -0.73600
O149        O  0.50867316  0.70680297  0.02022941    -0.74200
O150        O  0.41038412  0.70437487  0.10529329    -0.73600
O151        O  0.42171633  0.64252597  0.96534096    -0.74300
O152        O  0.45790746  0.72633540  0.10693283    -0.73700
O153        O  0.38414096  0.66012968  0.01573415    -0.74200
O154        O  0.36179978  0.73649929  0.02291695    -0.74100
O155        O  0.37725406  0.76631551  0.95804072    -0.73900
C156        C  0.43257392  0.71205082  0.84852538     0.77900
C157        C  0.51451259  0.68258024  0.99374981     0.78400
C158        C  0.47046570  0.79607030  0.98474866     0.77400
C159        C  0.43434103  0.71440205  0.12954947     0.77700
C160        C  0.39686790  0.63786722  0.99099535     0.78900
C161        C  0.35721764  0.75936150  0.99193723     0.77900
Zn162      Zn  0.46384798  0.72582463  0.53330348     1.49700
Zn163      Zn  0.41903953  0.74679441  0.44280770     1.49400
Zn164      Zn  0.44315231  0.67567488  0.44970401     1.49100
Zn165      Zn  0.39226076  0.70148422  0.52991808     1.49500
O166        O  0.42935060  0.71214866  0.48899269    -1.83400
O167        O  0.47248897  0.77211009  0.52545419    -0.74000
O168        O  0.42399258  0.73430041  0.37055931    -0.73800
O169        O  0.48913882  0.66589300  0.46437668    -0.73300
O170        O  0.44706774  0.78427615  0.45399843    -0.74000
O171        O  0.50422407  0.70344873  0.51756247    -0.73600
O172        O  0.43907883  0.68424791  0.37347684    -0.74200
O173        O  0.37872485  0.65600277  0.51620498    -0.73600
O174        O  0.37482436  0.76226335  0.45369776    -0.74300
O175        O  0.41695542  0.63735486  0.46774820    -0.73700
O176        O  0.35612149  0.73248502  0.51614168    -0.74200
O177        O  0.40325200  0.70415074  0.60522764    -0.74100
O178        O  0.45383314  0.71743495  0.60646832    -0.73900
C179        C  0.46556799  0.79158594  0.49020183     0.77900
C180        C  0.43194478  0.70909075  0.34835648     0.78400
C181        C  0.51040077  0.67950923  0.49071570     0.77400
C182        C  0.39176422  0.63325333  0.49289259     0.77700
C183        C  0.35305398  0.75540037  0.48478110     0.78900
C184        C  0.42871145  0.70990821  0.62945277     0.77900
Zn185      Zn  0.25042932  0.91945397  0.05282153     1.49700
Zn186      Zn  0.22880579  0.96460301  0.96097604     1.49400
Zn187      Zn  0.20494635  0.89234944  0.96627017     1.49100
Zn188      Zn  0.17971248  0.94443108  0.04527292     1.49500
O189        O  0.21587077  0.93008890  0.00615865    -1.83400
O190        O  0.28695812  0.94969703  0.04410734    -0.74000
O191        O  0.22363600  0.95207589  0.88791758    -0.73800
O192        O  0.23675566  0.85677823  0.97796683    -0.73300
O193        O  0.27412002  0.97643815  0.97416880    -0.74000
O194        O  0.26772801  0.87600230  0.03860553    -0.73600
O195        O  0.20726470  0.90231379  0.89119761    -0.74200
O196        O  0.14217987  0.91669262  0.03041457    -0.73600
O197        O  0.20300443  0.00410104  0.97063392    -0.74300
O198        O  0.15976952  0.87837297  0.98118092    -0.73700
O199        O  0.16823630  0.98967331  0.02835971    -0.74200
O200        O  0.18858187  0.94213936  0.12105335    -0.74100
O201        O  0.23630507  0.92089886  0.12559520    -0.73900
C202        C  0.29368368  0.96968258  0.00951079     0.77900
C203        C  0.21502978  0.92681107  0.86606338     0.78400
C204        C  0.26062899  0.85426253  0.00743601     0.77400
C205        C  0.13753765  0.89132973  0.00578061     0.77700
C206        C  0.17968443  0.01047129  0.99864898     0.78900
C207        C  0.21169414  0.93132622  0.14688273     0.77900
Zn208      Zn  0.20380510  0.89282327  0.46406775     1.49700
Zn209      Zn  0.25217686  0.91659768  0.54973337     1.49400
Zn210      Zn  0.22735789  0.96505386  0.46355705     1.49100
Zn211      Zn  0.18111190  0.94120215  0.54963438     1.49500
O212        O  0.21622015  0.92876120  0.50659064    -1.83400
O213        O  0.23480679  0.85639580  0.47150489    -0.74000
O214        O  0.28847496  0.94739148  0.53880343    -0.73800
O215        O  0.21977007  0.95555829  0.38923251    -0.73300
O216        O  0.26778765  0.87288942  0.53177678    -0.74000
O217        O  0.20461470  0.90539488  0.38992207    -0.73600
O218        O  0.27294734  0.97727098  0.47360656    -0.74200
O219        O  0.16755709  0.98625414  0.53768440    -0.73600
O220        O  0.24055770  0.91629668  0.62431763    -0.74300
O221        O  0.20166300  0.00344747  0.48068749    -0.73700
O222        O  0.19254573  0.93696568  0.62339123    -0.74200
O223        O  0.14368547  0.91357784  0.53743565    -0.74100
O224        O  0.15916722  0.87855667  0.48078549    -0.73900
C225        C  0.25901119  0.85227859  0.49969666     0.77900
C226        C  0.29377950  0.96914443  0.50618098     0.78400
C227        C  0.21121237  0.93072074  0.36602145     0.77400
C228        C  0.17852379  0.00824188  0.50992511     0.77700
C229        C  0.21628072  0.92605613  0.64739144     0.78900
C230        C  0.13813833  0.88968310  0.50994385     0.77900
Zn231      Zn  0.94340172  0.84230759  0.04211715     1.49700
Zn232      Zn  0.96418292  0.79245880  0.95794040     1.49400
Zn233      Zn  0.92080169  0.77130690  0.04828145     1.49100
Zn234      Zn  0.89170827  0.81697519  0.96199207     1.49500
O235        O  0.92984670  0.80596044  0.00207621    -1.83400
O236        O  0.98944198  0.85181152  0.03023142    -0.74000
O237        O  0.97685654  0.74710382  0.97046983    -0.73800
O238        O  0.92600773  0.78356882  0.12067867    -0.73300
O239        O  0.00356363  0.81831908  0.97041960    -0.74000
O240        O  0.93798261  0.83446582  0.11781091    -0.73600
O241        O  0.94876390  0.73397357  0.03768282    -0.74200
O242        O  0.85519594  0.78653574  0.97772846    -0.73600
O243        O  0.95082245  0.79655845  0.88471277    -0.74300
O244        O  0.87664142  0.75670744  0.03832405    -0.73700
O245        O  0.90157355  0.81438123  0.88635821    -0.74200
O246        O  0.87837164  0.86243703  0.97600457    -0.74100
O247        O  0.91801451  0.88075907  0.02303897    -0.73900
C248        C  0.01021401  0.84059295  0.00087348     0.77900
C249        C  0.96936450  0.72733551  0.00484486     0.78400
C250        C  0.93209025  0.80936689  0.14279015     0.77400
C251        C  0.85340366  0.76387343  0.00978982     0.77700
C252        C  0.92578989  0.80556944  0.86197014     0.78900
C253        C  0.89235071  0.88505488  0.99864661     0.77900
Zn254      Zn  0.89470533  0.81478377  0.45887819     1.49700
Zn255      Zn  0.96668696  0.79071672  0.45876033     1.49400
Zn256      Zn  0.94400252  0.84038699  0.54291088     1.49100
Zn257      Zn  0.92239628  0.76927393  0.54673094     1.49500
O258        O  0.93176760  0.80409526  0.50148535    -1.83400
O259        O  0.90625927  0.81270861  0.38454003    -0.74000
O260        O  0.00504206  0.81622094  0.47471019    -0.73800
O261        O  0.91985288  0.87898979  0.51958791    -0.73300
O262        O  0.95599210  0.79650058  0.38502322    -0.74000
O263        O  0.88196202  0.86053169  0.46928627    -0.73600
O264        O  0.99076763  0.84930011  0.53507469    -0.74200
O265        O  0.92471244  0.78144908  0.61986154    -0.73600
O266        O  0.97907335  0.74509863  0.46954329    -0.74300
O267        O  0.93517111  0.83269520  0.61829409    -0.73700
O268        O  0.95116671  0.73235564  0.53709566    -0.74200
O269        O  0.87898162  0.75396512  0.53259858    -0.74100
O270        O  0.85791653  0.78405050  0.47194413    -0.73900
C271        C  0.93129179  0.80530543  0.36129795     0.77900
C272        C  0.01167361  0.83800155  0.50592419     0.78400
C273        C  0.89551132  0.88343643  0.49181931     0.77400
C274        C  0.92899502  0.80738980  0.64268685     0.77700
C275        C  0.97150706  0.72540233  0.50393293     0.78900
C276        C  0.85612910  0.76086326  0.50304471     0.77900
Zn277      Zn  0.75206303  0.59934418  0.04908776     1.49700
Zn278      Zn  0.70693671  0.62766577  0.96243564     1.49400
Zn279      Zn  0.72915469  0.55502498  0.95973237     1.49100
Zn280      Zn  0.68101149  0.57777907  0.04472298     1.49500
O281        O  0.71718425  0.59006480  0.00361534    -1.83400
O282        O  0.76675677  0.64376701  0.03849658    -0.74000
O283        O  0.70993129  0.61730715  0.88748325    -0.73800
O284        O  0.77532831  0.54347736  0.96860313    -0.73300
O285        O  0.73675145  0.66425749  0.97733875    -0.74000
O286        O  0.78883804  0.57098302  0.03666913    -0.73600
O287        O  0.72065051  0.56596377  0.88606421    -0.74200
O288        O  0.67109238  0.53150687  0.03633082    -0.73600
O289        O  0.66186571  0.64144931  0.97547042    -0.74300
O290        O  0.70435573  0.51607363  0.97721563    -0.73700
O291        O  0.64297646  0.60314113  0.02462782    -0.74200
O292        O  0.68895430  0.58512474  0.11963404    -0.74100
O293        O  0.74021028  0.59493050  0.12215659    -0.73900
C294        C  0.75932757  0.66666185  0.00927509     0.77900
C295        C  0.71435514  0.59181335  0.86328764     0.78400
C296        C  0.79535392  0.55089600  0.00277614     0.77400
C297        C  0.68232713  0.51006422  0.00823889     0.77700
C298        C  0.63914926  0.62845008  0.99905504     0.78900
C299        C  0.71420586  0.59042006  0.14446790     0.77900
Zn300      Zn  0.74898873  0.59853446  0.54846655     1.49700
Zn301      Zn  0.70413314  0.62806525  0.46219139     1.49400
Zn302      Zn  0.72590470  0.55491519  0.45895591     1.49100
Zn303      Zn  0.67757463  0.57703103  0.54339142     1.49500
O304        O  0.71394408  0.58982639  0.50300527    -1.83400
O305        O  0.76640418  0.64139000  0.53416168    -0.74000
O306        O  0.70520431  0.61746401  0.38709651    -0.73800
O307        O  0.77052218  0.54042370  0.47087324    -0.73300
O308        O  0.73620683  0.66360894  0.47491396    -0.74000
O309        O  0.78445461  0.56765492  0.53886627    -0.73600
O310        O  0.72201077  0.56782029  0.38602770    -0.74200
O311        O  0.66517876  0.53168053  0.53017258    -0.73600
O312        O  0.65959186  0.64312499  0.47632954    -0.74300
O313        O  0.69851556  0.51688548  0.47073469    -0.73700
O314        O  0.64054305  0.60428228  0.52441452    -0.74200
O315        O  0.68638214  0.58141606  0.61920535    -0.74100
O316        O  0.73602339  0.59763520  0.62162523    -0.73900
C317        C  0.75980266  0.66462516  0.50520914     0.77900
C318        C  0.71326905  0.59284049  0.36308367     0.78400
C319        C  0.79040474  0.54694755  0.50557418     0.77400
C320        C  0.67572755  0.51085166  0.50025130     0.77700
C321        C  0.63681298  0.62979131  0.49927082     0.78900
C322        C  0.71071973  0.59009600  0.64408479     0.77900
Zn323      Zn  0.07541571  0.17900697  0.04351058     1.49700
Zn324      Zn  0.05524711  0.22968335  0.95904295     1.49400
Zn325      Zn  0.09944437  0.24968734  0.05100815     1.49100
Zn326      Zn  0.12703759  0.20520940  0.96476998     1.49500
O327        O  0.08935829  0.21576109  0.00425532    -1.83400
O328        O  0.02950908  0.16927562  0.03008511    -0.74000
O329        O  0.04306467  0.27506068  0.97257211    -0.73800
O330        O  0.09696682  0.23493597  0.12286049    -0.73300
O331        O  0.01625833  0.20293615  0.96852098    -0.74000
O332        O  0.08019176  0.18560626  0.11901790    -0.73600
O333        O  0.07009728  0.28659270  0.04239644    -0.74200
O334        O  0.16257190  0.23677673  0.97816108    -0.73600
O335        O  0.06841304  0.22610997  0.88617585    -0.74300
O336        O  0.14286072  0.26673459  0.03885925    -0.73700
O337        O  0.11743442  0.20836769  0.88974442    -0.74200
O338        O  0.14043986  0.15955019  0.97817640    -0.74100
O339        O  0.10156892  0.14126625  0.02594348    -0.73900
C340        C  0.00934191  0.18051731  0.99884737     0.77900
C341        C  0.05018310  0.29409848  0.00805341     0.78400
C342        C  0.08887234  0.20941035  0.14466274     0.77400
C343        C  0.16483930  0.26008874  0.00831774     0.77700
C344        C  0.09340015  0.21715568  0.86421719     0.78900
C345        C  0.12689703  0.13687609  0.00155636     0.77900
Zn346      Zn  0.07264201  0.17497600  0.46528325     1.49700
Zn347      Zn  0.09557942  0.24637683  0.45758110     1.49400
Zn348      Zn  0.05294760  0.22487358  0.54885988     1.49100
Zn349      Zn  0.12514453  0.20159592  0.54354145     1.49500
O350        O  0.08680209  0.21177226  0.50410085    -1.83400
O351        O  0.07887086  0.18149526  0.38953369    -0.74000
O352        O  0.06595769  0.28304752  0.46680881    -0.73800
O353        O  0.01349186  0.19907395  0.53821109    -0.73300
O354        O  0.09196325  0.23199681  0.38644625    -0.74000
O355        O  0.02618328  0.16694019  0.47556183    -0.73600
O356        O  0.04040630  0.27032488  0.53703605    -0.74200
O357        O  0.11683447  0.20580363  0.61943547    -0.73600
O358        O  0.13980507  0.26264483  0.46644741    -0.74300
O359        O  0.06687920  0.22076186  0.62098860    -0.73700
O360        O  0.16112215  0.23191205  0.52606884    -0.74200
O361        O  0.13796204  0.15604567  0.53041952    -0.74100
O362        O  0.09741968  0.13636832  0.48666161    -0.73900
C363        C  0.08597982  0.20616408  0.36429551     0.77900
C364        C  0.04647446  0.28978318  0.50144903     0.78400
C365        C  0.00607310  0.17789372  0.50630708     0.77400
C366        C  0.09234702  0.21362486  0.64398076     0.77700
C367        C  0.16296911  0.25501286  0.49488628     0.78900
C368        C  0.12367509  0.13288496  0.50977634     0.77900
Zn369      Zn  0.34036332  0.44523148  0.95451477     1.49700
Zn370      Zn  0.31489562  0.39555413  0.03739449     1.49400
Zn371      Zn  0.29320303  0.46843880  0.03982277     1.49100
Zn372      Zn  0.26892194  0.42239478  0.95218323     1.49500
O373        O  0.30444001  0.43289671  0.99614162    -1.83400
O374        O  0.37830465  0.41897135  0.97383405    -0.74000
O375        O  0.31395931  0.40674877  0.11140391    -0.73800
O376        O  0.32034276  0.50644785  0.02585435    -0.73300
O377        O  0.35940656  0.38056612  0.02301713    -0.74000
O378        O  0.35228892  0.49095219  0.96504853    -0.73600
O379        O  0.29901695  0.45679919  0.11339519    -0.74200
O380        O  0.23347929  0.45246296  0.96345360    -0.73600
O381        O  0.28281283  0.36020845  0.02814614    -0.74300
O382        O  0.24802888  0.48199081  0.02872558    -0.73700
O383        O  0.25191057  0.37887008  0.96651179    -0.74200
O384        O  0.28044653  0.42440734  0.87876701    -0.74100
O385        O  0.33042300  0.43938528  0.87955114    -0.73900
C386        C  0.38211289  0.39374430  0.99967498     0.77900
C387        C  0.30725271  0.43147961  0.13605883     0.78400
C388        C  0.34254095  0.51214021  0.99501431     0.77400
C389        C  0.22768169  0.47391004  0.99554274     0.77700
C390        C  0.25919163  0.35735657  0.99837025     0.78900
C391        C  0.30558659  0.43134429  0.85539549     0.77900
Zn392      Zn  0.31348095  0.39048308  0.45291206     1.49700
Zn393      Zn  0.26732506  0.41494737  0.53834661     1.49400
Zn394      Zn  0.33782634  0.44032699  0.53623433     1.49100
Zn395      Zn  0.28858457  0.46329751  0.45227127     1.49500
O396        O  0.30192245  0.42714382  0.49456399    -1.83400
O397        O  0.28208421  0.35376987  0.46144657    -0.74000
O398        O  0.27895330  0.41817019  0.61200922    -0.73800
O399        O  0.37525332  0.41311965  0.52207987    -0.73300
O400        O  0.25270571  0.37071485  0.52493991    -0.74000
O401        O  0.35877107  0.37628611  0.46870674    -0.73600
O402        O  0.32783662  0.43629965  0.61094470    -0.74200
O403        O  0.31331395  0.50277345  0.46918483    -0.73600
O404        O  0.23010158  0.44295281  0.52585352    -0.74300
O405        O  0.35041518  0.48576890  0.52252324    -0.73700
O406        O  0.24242911  0.47406549  0.46106271    -0.74200
O407        O  0.29624326  0.45344572  0.37888887    -0.74100
O408        O  0.31249394  0.40365717  0.37919060    -0.73900
C409        C  0.25960755  0.34975696  0.49266963     0.77900
C410        C  0.30364893  0.42723633  0.63526734     0.78400
C411        C  0.38055429  0.38873380  0.49568420     0.77400
C412        C  0.33773945  0.50774313  0.49628524     0.77700
C413        C  0.22281040  0.46447386  0.49396326     0.78900
C414        C  0.30556293  0.42906244  0.35551314     0.77900
Zn415      Zn  0.98557066  0.53827003  0.95706458     1.49700
Zn416      Zn  0.03923652  0.53843574  0.04389245     1.49400
Zn417      Zn  0.98477461  0.48496498  0.04428951     1.49100
Zn418      Zn  0.03605921  0.48502272  0.95829515     1.49500
O419        O  0.01139638  0.51183868  0.00158696    -1.83400
O420        O  0.99338031  0.58390390  0.97066449    -0.74000
O421        O  0.03169945  0.52961100  0.11840036    -0.73800
O422        O  0.93847501  0.49410829  0.03078197    -0.73300
O423        O  0.02919702  0.58486513  0.03280486    -0.74000
O424        O  0.93987239  0.53012431  0.96895831    -0.73600
O425        O  0.99312547  0.49432617  0.11746368    -0.74200
O426        O  0.02945549  0.43941378  0.97338944    -0.73600
O427        O  0.08559228  0.52986830  0.02893895    -0.74300
O428        O  0.99466336  0.43825953  0.03569394    -0.73700
O429        O  0.08130081  0.49353621  0.96910463    -0.74200
O430        O  0.02725897  0.49177763  0.88470973    -0.74100
O431        O  0.99314388  0.53099251  0.88334708    -0.73900
C432        C  0.01042269  0.59890105  0.00217557     0.77900
C433        C  0.01225000  0.51190413  0.14159586     0.78400
C434        C  0.92465128  0.51276453  0.99966813     0.77400
C435        C  0.01316204  0.42426412  0.00551374     0.77700
C436        C  0.09804201  0.51100451  0.99745448     0.78900
C437        C  0.01006824  0.51116333  0.86030802     0.77900
Zn438      Zn  0.03136397  0.48039852  0.54506142     1.49700
Zn439      Zn  0.97938298  0.47981483  0.45706601     1.49400
Zn440      Zn  0.98033451  0.53276454  0.54297098     1.49100
Zn441      Zn  0.03391918  0.53475498  0.45997102     1.49500
O442        O  0.00622672  0.50685862  0.50026408    -1.83400
O443        O  0.02261531  0.43470946  0.53470373    -0.74000
O444        O  0.93224277  0.48828450  0.46943749    -0.73800
O445        O  0.98785983  0.52580076  0.61674478    -0.73300
O446        O  0.98946007  0.43292661  0.46913432    -0.74000
O447        O  0.02514644  0.48963103  0.61848434    -0.73600
O448        O  0.93539055  0.52435784  0.52985487    -0.74200
O449        O  0.02604392  0.58155849  0.47422055    -0.73600
O450        O  0.98890792  0.48976071  0.38354637    -0.74300
O451        O  0.98784709  0.57832026  0.53074509    -0.73700
O452        O  0.02504961  0.52766735  0.38597471    -0.74200
O453        O  0.08030118  0.52384747  0.47149967    -0.74100
O454        O  0.07662506  0.48635927  0.53029835    -0.73900
C455        C  0.00681900  0.41914267  0.50230597     0.77900
C456        C  0.91916490  0.50700632  0.50057305     0.78400
C457        C  0.00674803  0.50819762  0.64131653     0.77400
C458        C  0.00635122  0.59462408  0.50360526     0.77700
C459        C  0.00728344  0.50902844  0.36112909     0.78900
C460        C  0.09305814  0.50350256  0.50101301     0.77900
C461        C  0.99002112  0.53140521  0.77700987    -0.20500
C462        C  0.00957810  0.51053891  0.80427118    -0.08600
C463        C  0.02825892  0.48910907  0.77737932     0.30300
C464        C  0.02712792  0.48859377  0.72456217    -0.20500
C465        C  0.00746283  0.50931353  0.69729686    -0.08600
C466        C  0.98888838  0.53088593  0.72412814     0.30300
F467        F  0.96965795  0.55159440  0.69958142    -0.19100
H468        H  0.97542503  0.54819591  0.79660120     0.18700
H469        H  0.04172070  0.47177849  0.70502120     0.18700
F470        F  0.04766463  0.46852702  0.80181059    -0.19100
C471        C  0.99646814  0.48641541  0.22300852    -0.20500
C472        C  0.01155381  0.51140706  0.19777124    -0.08600
C473        C  0.02524857  0.53560761  0.22674885     0.30300
C474        C  0.02362861  0.53470000  0.27971011    -0.20500
C475        C  0.00840024  0.50973248  0.30492634    -0.08600
C476        C  0.99493904  0.48544187  0.27586434     0.30300
F477        F  0.98075802  0.46037150  0.29829763    -0.19100
H478        H  0.98597017  0.46729526  0.20177628     0.18700
H479        H  0.03417857  0.55376790  0.30099327     0.18700
F480        F  0.03964947  0.56048236  0.20410577    -0.19100
C481        C  0.17324859  0.47380107  0.54049180    -0.20500
C482        C  0.19077653  0.47816859  0.49613983    -0.08600
C483        C  0.17682422  0.49436470  0.45478313     0.30300
C484        C  0.14536969  0.50427044  0.45725106    -0.20500
C485        C  0.12747235  0.49819079  0.50084866    -0.08600
C486        C  0.14213973  0.48370163  0.54302616     0.30300
F487        F  0.12623560  0.47844157  0.58671209    -0.19100
H488        H  0.18348064  0.46211944  0.57337234     0.18700
H489        H  0.13461808  0.51533926  0.42425799     0.18700
F490        F  0.19291873  0.49925928  0.41120789    -0.19100
C491        C  0.15194547  0.51335439  0.03672555    -0.20500
C492        C  0.13256976  0.50760985  0.99432773    -0.08600
C493        C  0.14599426  0.49469911  0.95051565     0.30300
C494        C  0.17734092  0.48538099  0.95071152    -0.20500
C495        C  0.19618999  0.48875630  0.99431018    -0.08600
C496        C  0.18357246  0.50401473  0.03685890     0.30300
F497        F  0.20104741  0.50807470  0.07966163    -0.19100
H498        H  0.14218378  0.52332967  0.07082491     0.18700
H499        H  0.18657569  0.47446069  0.91697043     0.18700
F500        F  0.12853676  0.48993663  0.90784129    -0.19100
C501        C  0.27942440  0.41744664  0.77308196    -0.20500
C502        C  0.30557184  0.42999002  0.79907904    -0.08600
C503        C  0.33110373  0.44131539  0.77061098     0.30300
C504        C  0.33034016  0.44005839  0.71761866    -0.20500
C505        C  0.30417570  0.42762091  0.69162139    -0.08600
C506        C  0.27862848  0.41621228  0.72011406     0.30300
F507        F  0.25278160  0.40381851  0.69711855    -0.19100
H508        H  0.25939614  0.40847688  0.79376523     0.18700
H509        H  0.35028648  0.44916617  0.69690251     0.18700
F510        F  0.35670121  0.45408452  0.79369479    -0.19100
C511        C  0.30778538  0.45904881  0.21951201    -0.20500
C512        C  0.30865254  0.43075628  0.19223702    -0.08600
C513        C  0.31008753  0.40203822  0.21928212     0.30300
C514        C  0.30972049  0.40178874  0.27225593    -0.20500
C515        C  0.30789617  0.43002724  0.29949199    -0.08600
C516        C  0.30753694  0.45879511  0.27251420     0.30300
F517        F  0.30708551  0.48674778  0.29715054    -0.19100
H518        H  0.30718076  0.48151580  0.19979689     0.18700
H519        H  0.31011621  0.37930703  0.29193458     0.18700
F520        F  0.31084808  0.37405706  0.19476749    -0.19100
C521        C  0.01447171  0.36866850  0.45600782    -0.20500
C522        C  0.01077125  0.38450173  0.50211744    -0.08600
C523        C  0.01561744  0.36778718  0.54790141     0.30300
C524        C  0.02548536  0.33636561  0.54733175    -0.20500
C525        C  0.03151260  0.32127337  0.50123421    -0.08600
C526        C  0.02509099  0.33743663  0.45544504     0.30300
F527        F  0.02973822  0.32327392  0.41014634    -0.19100
H528        H  0.01101839  0.38107726  0.42032343     0.18700
H529        H  0.03005643  0.32437268  0.58307869     0.18700
F530        F  0.01181301  0.38216811  0.59325808    -0.19100
C531        C  0.20123477  0.28862256  0.44681014    -0.20500
C532        C  0.19184486  0.27467236  0.49288812    -0.08600
C533        C  0.20798726  0.28281234  0.53771547     0.30300
C534        C  0.23135516  0.30609620  0.53684201    -0.20500
C535        C  0.23982150  0.32100010  0.49116745    -0.08600
C536        C  0.22531556  0.31125668  0.44575428     0.30300
F537        F  0.23254219  0.32544490  0.40102652    -0.19100
H538        H  0.18914163  0.28276278  0.41177339     0.18700
H539        H  0.24206473  0.31340934  0.57230058     0.18700
F540        F  0.19942427  0.27020536  0.58300348    -0.19100
C541        C  0.01676591  0.37236820  0.96320201    -0.20500
C542        C  0.01716742  0.38982849  0.00815146    -0.08600
C543        C  0.02590370  0.37493157  0.05389182     0.30300
C544        C  0.03556212  0.34339401  0.05397362    -0.20500
C545        C  0.03615557  0.32608469  0.00862444    -0.08600
C546        C  0.02572566  0.34069653  0.96337046     0.30300
F547        F  0.02610943  0.32508909  0.91864256    -0.19100
H548        H  0.01040628  0.38361888  0.92752840     0.18700
H549        H  0.04345760  0.33276286  0.08934000     0.18700
F550        F  0.02740079  0.39148803  0.09771486    -0.19100
C551        C  0.22912071  0.31346057  0.95782423    -0.20500
C552        C  0.23871629  0.32926757  0.00195351    -0.08600
C553        C  0.22585003  0.32019180  0.04875306     0.30300
C554        C  0.20275929  0.29667823  0.05086221    -0.20500
C555        C  0.19260825  0.28124708  0.00659351    -0.08600
C556        C  0.20663118  0.28932769  0.96009037     0.30300
F557        F  0.19701627  0.27552389  0.91632673    -0.19100
H558        H  0.23854631  0.32035405  0.92134433     0.18700
H559        H  0.19211732  0.29112306  0.08702729     0.18700
F560        F  0.23391767  0.33562832  0.09187958    -0.19100
C561        C  0.06694774  0.22511334  0.78031202    -0.20500
C562        C  0.09409569  0.21671804  0.80787983    -0.08600
C563        C  0.12111024  0.20768384  0.78095312     0.30300
C564        C  0.12051466  0.20672474  0.72778046    -0.20500
C565        C  0.09311791  0.21478142  0.70035385    -0.08600
C566        C  0.06634190  0.22422477  0.72748507     0.30300
F567        F  0.03929358  0.23265945  0.70327382    -0.19100
H568        H  0.04581102  0.23229538  0.79965466     0.18700
H569        H  0.14154571  0.19958526  0.70810827     0.18700
F570        F  0.14810981  0.19972503  0.80572564    -0.19100
C571        C  0.08294221  0.17932969  0.22658964    -0.20500
C572        C  0.08908596  0.20783759  0.20086556    -0.08600
C573        C  0.09472126  0.23513631  0.22951635     0.30300
C574        C  0.09382904  0.23395304  0.28217626    -0.20500
C575        C  0.08733714  0.20569439  0.30812315    -0.08600
C576        C  0.08211621  0.17815865  0.27974979     0.30300
F577        F  0.07614378  0.15019690  0.30304818    -0.19100
H578        H  0.07864087  0.15791121  0.20557997     0.18700
H579        H  0.09801037  0.25560169  0.30263067     0.18700
F580        F  0.10058842  0.26335983  0.20695938    -0.19100
C581        C  0.83355457  0.51734528  0.46213175    -0.20500
C582        C  0.82150209  0.53114002  0.50636094    -0.08600
C583        C  0.84050890  0.53178979  0.55025818     0.30300
C584        C  0.87155992  0.52149506  0.54857877    -0.20500
C585        C  0.88455030  0.51031457  0.50330096    -0.08600
C586        C  0.86487444  0.50698314  0.46049567     0.30300
F587        F  0.87642043  0.49605938  0.41616376    -0.19100
H588        H  0.81930859  0.51619355  0.42792534     0.18700
H589        H  0.88597973  0.52363780  0.58248568     0.18700
F590        F  0.82952399  0.54337974  0.59455273    -0.19100
C591        C  0.84058035  0.52626460  0.95751628    -0.20500
C592        C  0.82714260  0.53661577  0.00300399    -0.08600
C593        C  0.84515168  0.53502257  0.04810257     0.30300
C594        C  0.87631831  0.52467787  0.04720720    -0.20500
C595        C  0.89029427  0.51648472  0.00126032    -0.08600
C596        C  0.87209915  0.51671354  0.95650322     0.30300
F597        F  0.88504292  0.50850967  0.91161484    -0.19100
H598        H  0.82725999  0.52708368  0.92246139     0.18700
H599        H  0.89008009  0.52492622  0.08185464     0.18700
F600        F  0.83299524  0.54425323  0.09303907    -0.19100
C601        C  0.72868132  0.61358349  0.72600665    -0.20500
C602        C  0.71004575  0.59135573  0.70023938    -0.08600
C603        C  0.69213378  0.56978582  0.72872666     0.30300
C604        C  0.69374243  0.56993409  0.78185937    -0.20500
C605        C  0.71234646  0.59220443  0.80738329    -0.08600
C606        C  0.72950337  0.61432866  0.77906693     0.30300
F607        F  0.74801868  0.63585716  0.80273340    -0.19100
H608        H  0.74266318  0.63044745  0.70496769     0.18700
H609        H  0.68032063  0.55274027  0.80316986     0.18700
F610        F  0.67401400  0.54783453  0.70530599    -0.19100
C611        C  0.68816920  0.60465224  0.22585611    -0.20500
C612        C  0.71363477  0.59113973  0.20038302    -0.08600
C613        C  0.73882935  0.57852898  0.22880480     0.30300
C614        C  0.73832121  0.57912244  0.28169672    -0.20500
C615        C  0.71318925  0.59305969  0.30720936    -0.08600
C616        C  0.68811254  0.60605348  0.27895964     0.30300
F617        F  0.66321591  0.61917935  0.30267866    -0.19100
H618        H  0.66856679  0.61452435  0.20458905     0.18700
H619        H  0.75780564  0.56891949  0.30286331     0.18700
F620        F  0.76359476  0.56487554  0.20547565    -0.19100
C621        C  0.98335620  0.67519587  0.54969737    -0.20500
C622        C  0.98565475  0.69346177  0.50524637    -0.08600
C623        C  0.99934849  0.67993648  0.46202190     0.30300
C624        C  0.00817876  0.64809057  0.46249115    -0.20500
C625        C  0.00348554  0.62933566  0.50589064    -0.08600
C626        C  0.99220504  0.64358617  0.55019278     0.30300
F627        F  0.98879662  0.62669401  0.59376333    -0.19100
H628        H  0.97371726  0.68512665  0.58393359     0.18700
H629        H  0.01690679  0.63766850  0.42800370     0.18700
F630        F  0.00235344  0.69677352  0.41836001    -0.19100
C631        C  0.82444049  0.72015136  0.54750889    -0.20500
C632        C  0.82782330  0.74023876  0.50529128    -0.08600
C633        C  0.80594524  0.73772592  0.46498691     0.30300
C634        C  0.78268255  0.71407516  0.46587388    -0.20500
C635        C  0.78090740  0.69263707  0.50683837    -0.08600
C636        C  0.80150322  0.69675444  0.54843422     0.30300
F637        F  0.80017562  0.67761832  0.58988108    -0.19100
H638        H  0.84037150  0.72181252  0.57969596     0.18700
H639        H  0.76703034  0.71163859  0.43349513     0.18700
F640        F  0.80803440  0.75683400  0.42365101    -0.19100
C641        C  0.99725714  0.68321293  0.96188340    -0.20500
C642        C  0.98426212  0.69579955  0.00618556    -0.08600
C643        C  0.98419881  0.67724846  0.05080935     0.30300
C644        C  0.99541442  0.64632218  0.05015398    -0.20500
C645        C  0.00622948  0.63318503  0.00498868    -0.08600
C646        C  0.00777504  0.65201188  0.96105791     0.30300
F647        F  0.01854742  0.63987942  0.91702110    -0.19100
H648        H  0.99784520  0.69699800  0.92716237     0.18700
H649        H  0.99380135  0.63197854  0.08420930     0.18700
F650        F  0.97250001  0.68860568  0.09476953    -0.19100
C651        C  0.80371110  0.74117987  0.97191273    -0.20500
C652        C  0.82470316  0.74395407  0.01323053    -0.08600
C653        C  0.82017488  0.72445064  0.05606102     0.30300
C654        C  0.79752631  0.70072325  0.05528750    -0.20500
C655        C  0.77849452  0.69589291  0.01223330    -0.08600
C656        C  0.78065658  0.71741371  0.97138355     0.30300
F657        F  0.76207844  0.71424695  0.92958943    -0.19100
H658        H  0.80634042  0.75612828  0.93874350     0.18700
H659        H  0.79577704  0.68522563  0.08799093     0.18700
F660        F  0.83854561  0.72733633  0.09819234    -0.19100
C661        C  0.91203148  0.83111789  0.77862192    -0.20500
C662        C  0.92520353  0.80570538  0.80586574    -0.08600
C663        C  0.93900429  0.78088208  0.77904309     0.30300
C664        C  0.93968471  0.78158580  0.72606904    -0.20500
C665        C  0.92743790  0.80739283  0.69874706    -0.08600
C666        C  0.91352120  0.83223441  0.72545214     0.30300
F667        F  0.90082370  0.85718822  0.70017995    -0.19100
H668        H  0.90130587  0.85047081  0.79860455     0.18700
H669        H  0.95036385  0.76210780  0.70630602     0.18700
F670        F  0.95144918  0.75567655  0.80405199    -0.19100
C671        C  0.94634219  0.78399685  0.22487548    -0.20500
C672        C  0.93269535  0.80951354  0.19866784    -0.08600
C673        C  0.91881981  0.83394420  0.22625625     0.30300
C674        C  0.91795403  0.83228684  0.27933240    -0.20500
C675        C  0.93181216  0.80680609  0.30545499    -0.08600
C676        C  0.94639723  0.78284596  0.27779972     0.30300
F677        F  0.95985609  0.75783025  0.30190240    -0.19100
H678        H  0.95716530  0.76495893  0.20422968     0.18700
H679        H  0.90679035  0.85106237  0.30010261     0.18700
F680        F  0.90519324  0.85876175  0.20190365    -0.19100
C681        C  0.18289228  0.06666956  0.50067961    -0.20500
C682        C  0.16436205  0.04009172  0.51166109    -0.08600
C683        C  0.13243564  0.04441272  0.52348530     0.30300
C684        C  0.11932070  0.07467467  0.52279736    -0.20500
C685        C  0.13795692  0.10117492  0.51196932    -0.08600
C686        C  0.16997467  0.09694708  0.50144306     0.30300
F687        F  0.18849939  0.12199206  0.48993295    -0.19100
H688        H  0.20753237  0.06401595  0.49166591     0.18700
H689        H  0.09457931  0.07746393  0.53100518     0.18700
F690        F  0.11366995  0.01939231  0.53419638    -0.19100
C691        C  0.09780206  0.85241415  0.47522705    -0.20500
C692        C  0.10628902  0.87522085  0.51112833    -0.08600
C693        C  0.08359193  0.88486900  0.54653592     0.30300
C694        C  0.05307993  0.87256716  0.54481014    -0.20500
C695        C  0.04439830  0.85030330  0.50809964    -0.08600
C696        C  0.06733719  0.84006342  0.47357431     0.30300
F697        F  0.06038891  0.81846154  0.43746016    -0.19100
H698        H  0.11463471  0.84445478  0.44755814     0.18700
H699        H  0.03617442  0.88065928  0.57226926     0.18700
F700        F  0.09067024  0.90628190  0.58289061    -0.19100
C701        C  0.16304872  0.09649676  0.96409396    -0.20500
C702        C  0.14051962  0.10458782  0.00045487    -0.08600
C703        C  0.13069783  0.08125974  0.03523850     0.30300
C704        C  0.14325946  0.05089209  0.03376288    -0.20500
C705        C  0.16593076  0.04275236  0.99774124    -0.08600
C706        C  0.17555488  0.06594694  0.96246848     0.30300
F707        F  0.19687051  0.05921748  0.92613137    -0.19100
H708        H  0.17081608  0.11376607  0.93647521     0.18700
H709        H  0.13537764  0.03377567  0.06153546     0.18700
F710        F  0.10931586  0.08778686  0.07157196    -0.19100
C711        C  0.22618868  0.89977216  0.78445052    -0.20500
C712        C  0.21431339  0.92597542  0.81018492    -0.08600
C713        C  0.20255309  0.95169959  0.78208399     0.30300
C714        C  0.20279044  0.95118769  0.72911931    -0.20500
C715        C  0.21558494  0.92548250  0.70331294    -0.08600
C716        C  0.22728072  0.89966309  0.73135614     0.30300
F717        F  0.23914781  0.87415465  0.70746452    -0.19100
H718        H  0.23531707  0.87972426  0.80553811     0.18700
H719        H  0.19353341  0.97123263  0.70816567     0.18700
F720        F  0.19037499  0.97711344  0.80584844    -0.19100
C721        C  0.19808682  0.95670635  0.22920864    -0.20500
C722        C  0.21013252  0.93080768  0.20285160    -0.08600
C723        C  0.22150863  0.90470495  0.23049139     0.30300
C724        C  0.22088488  0.90458530  0.28349584    -0.20500
C725        C  0.20984211  0.93083575  0.30997387    -0.08600
C726        C  0.19840118  0.95700075  0.28240975     0.30300
F727        F  0.18719047  0.98260701  0.30686157    -0.19100
H728        H  0.18923655  0.97705796  0.20857417     0.18700
H729        H  0.22985080  0.88422428  0.30397983     0.18700
F730        F  0.23290202  0.87912930  0.20618714    -0.19100
C731        C  0.06749746  0.83728223  0.97878781    -0.20500
C732        C  0.04283407  0.85340637  0.00255672    -0.08600
C733        C  0.04988282  0.88152785  0.02829233     0.30300
C734        C  0.08062572  0.89324321  0.02951629    -0.20500
C735        C  0.10530292  0.87735823  0.00535765    -0.08600
C736        C  0.09836100  0.84895131  0.98023465     0.30300
F737        F  0.12125515  0.83232982  0.95699043    -0.19100
H738        H  0.06296466  0.81540956  0.95915932     0.18700
H739        H  0.08497561  0.91513553  0.04918018     0.18700
F740        F  0.02705265  0.89816610  0.05170704    -0.19100
C741        C  0.56871484  0.68763238  0.49606473    -0.20500
C742        C  0.54290002  0.66709966  0.49085131    -0.08600
C743        C  0.54843027  0.63457487  0.48736142     0.30300
C744        C  0.57905675  0.62285087  0.49041699    -0.20500
C745        C  0.60485619  0.64327224  0.49556915    -0.08600
C746        C  0.59952345  0.67590840  0.49759058     0.30300
F747        F  0.62392051  0.69630599  0.50274721    -0.19100
H748        H  0.56501120  0.71280423  0.49870530     0.18700
H749        H  0.58266229  0.59763419  0.48842464     0.18700
F750        F  0.52417120  0.61397066  0.48280607    -0.19100
C751        C  0.31818139  0.79628291  0.44452808    -0.20500
C752        C  0.32471474  0.77603237  0.48587445    -0.08600
C753        C  0.30633548  0.77877501  0.52991037     0.30300
C754        C  0.28395480  0.80292325  0.53370866    -0.20500
C755        C  0.27869064  0.82394810  0.49317052    -0.08600
C756        C  0.29524557  0.81978659  0.44791202     0.30300
F757        F  0.29087667  0.83995480  0.40824981    -0.19100
H758        H  0.33171995  0.79473242  0.41003594     0.18700
H759        H  0.27132797  0.80578020  0.56887249     0.18700
F760        F  0.31132009  0.75952159  0.57052161    -0.19100
C761        C  0.33232883  0.56625331  0.50198093    -0.20500
C762        C  0.35168041  0.53970245  0.49697486    -0.08600
C763        C  0.38422943  0.54405470  0.49155533     0.30300
C764        C  0.39698299  0.57448707  0.48994649    -0.20500
C765        C  0.37769845  0.60117249  0.49516003    -0.08600
C766        C  0.34518325  0.59668522  0.50194893     0.30300
F767        F  0.32566570  0.62168514  0.50717722    -0.19100
H768        H  0.30719189  0.56337872  0.50637946     0.18700
H769        H  0.42209059  0.57717583  0.48494344     0.18700
F770        F  0.40356266  0.51891936  0.48604117    -0.19100
C771        C  0.57300787  0.68850756  0.99387956    -0.20500
C772        C  0.54640985  0.66889331  0.99513632    -0.08600
C773        C  0.55054256  0.63609268  0.99754782     0.30300
C774        C  0.58076749  0.62322677  0.99905446    -0.20500
C775        C  0.60743829  0.64272979  0.99690037    -0.08600
C776        C  0.60331151  0.67558368  0.99400385     0.30300
F777        F  0.62850792  0.69520454  0.99268943    -0.19100
H778        H  0.57028095  0.71385696  0.99203664     0.18700
H779        H  0.58333013  0.59787347  0.00144094     0.18700
F780        F  0.52534270  0.61650953  0.99989174    -0.19100
C781        C  0.31208297  0.78957340  0.95363170    -0.20500
C782        C  0.32910139  0.77972412  0.99688945    -0.08600
C783        C  0.32144769  0.79260222  0.04416063     0.30300
C784        C  0.29830207  0.81595066  0.04758526    -0.20500
C785        C  0.28171837  0.82640941  0.00422900    -0.08600
C786        C  0.28825195  0.81230005  0.95725476     0.30300
F787        F  0.27317274  0.82198102  0.91427723    -0.19100
H788        H  0.31780146  0.78018569  0.91675216     0.18700
H789        H  0.29390878  0.82651999  0.08410940     0.18700
F790        F  0.33798083  0.78433189  0.08649221    -0.19100
C791        C  0.45702444  0.69921795  0.76549560    -0.20500
C792        C  0.43100382  0.70998619  0.79266255    -0.08600
C793        C  0.40375098  0.71931973  0.76595647     0.30300
C794        C  0.40273941  0.71813774  0.71291105    -0.20500
C795        C  0.42916750  0.70851065  0.68556850    -0.08600
C796        C  0.45636249  0.69891251  0.71238470     0.30300
F797        F  0.48223299  0.68905539  0.68728426    -0.19100
H798        H  0.47820749  0.69187815  0.78541328     0.18700
H799        H  0.38158290  0.72566409  0.69311137     0.18700
F800        F  0.37798138  0.72925316  0.79122513    -0.19100
C801        C  0.42863665  0.68384302  0.21022602    -0.20500
C802        C  0.43456007  0.71256046  0.18530887    -0.08600
C803        C  0.44009603  0.73968165  0.21402908     0.30300
C804        C  0.43913957  0.73818892  0.26691532    -0.20500
C805        C  0.43336412  0.70949591  0.29223787    -0.08600
C806        C  0.42853487  0.68212830  0.26336688     0.30300
F807        F  0.42286566  0.65399638  0.28631574    -0.19100
H808        H  0.42435517  0.66270471  0.18845554     0.18700
H809        H  0.44307835  0.75959181  0.28817090     0.18700
F810        F  0.44535015  0.76784098  0.19085613    -0.19100
C811        C  0.39360650  0.58250859  0.95889866    -0.20500
C812        C  0.38288138  0.60574663  0.99232419    -0.08600
C813        C  0.35938024  0.59759998  0.02736826     0.30300
C814        C  0.34663710  0.56721641  0.02802829    -0.20500
C815        C  0.35700174  0.54408991  0.99409996    -0.08600
C816        C  0.38093474  0.55207599  0.95965797     0.30300
F817        F  0.39215126  0.53064805  0.92645968    -0.19100
H818        H  0.41183581  0.58788909  0.93175547     0.18700
H819        H  0.32854148  0.56183545  0.05539689     0.18700
F820        F  0.34893002  0.61874690  0.06166622    -0.19100
C821        C  0.49869212  0.87065752  0.45060334    -0.20500
C822        C  0.49804034  0.88692334  0.49675412    -0.08600
C823        C  0.48838262  0.87098575  0.54096643     0.30300
C824        C  0.47914214  0.83950776  0.53873841    -0.20500
C825        C  0.47840965  0.82370299  0.49228239    -0.08600
C826        C  0.48850919  0.83936723  0.44814916     0.30300
F827        F  0.48838502  0.82447950  0.40275458    -0.19100
H828        H  0.50571657  0.88259591  0.41604645     0.18700
H829        H  0.47128419  0.82783067  0.57305189     0.18700
F830        F  0.48734112  0.88598884  0.58622433    -0.19100
C831        C  0.34332648  0.98566888  0.55028964    -0.20500
C832        C  0.32504051  0.98487001  0.50574702    -0.08600
C833        C  0.33763496  0.99784121  0.46082292     0.30300
C834        C  0.36881192  0.00879556  0.45985638    -0.20500
C835        C  0.38783536  0.00719740  0.50362237    -0.08600
C836        C  0.37418685  0.99698366  0.54950213     0.30300
F837        F  0.39114445  0.99670699  0.59342750    -0.19100
H838        H  0.33397327  0.97675638  0.58569614     0.18700
H839        H  0.37867081  0.01650604  0.42411750     0.18700
F840        F  0.32067105  0.99787397  0.41695780    -0.19100
C841        C  0.51131519  0.87190172  0.02490323    -0.20500
C842        C  0.50390873  0.89182531  0.98382349    -0.08600
C843        C  0.48837644  0.87910273  0.94115947     0.30300
C844        C  0.47864555  0.84774454  0.94119815    -0.20500
C845        C  0.48420681  0.82821281  0.98351335    -0.08600
C846        C  0.50152358  0.84037782  0.02497459     0.30300
F847        F  0.50759416  0.82245104  0.06677495    -0.19100
H848        H  0.52311456  0.88115210  0.05820668     0.18700
H849        H  0.46596327  0.83899972  0.90836911     0.18700
F850        F  0.48169840  0.89722804  0.89976829    -0.19100
C851        C  0.36965172  0.00620469  0.96320391    -0.20500
C852        C  0.38788885  0.00675722  0.00776686    -0.08600
C853        C  0.37422594  0.99744704  0.05385401     0.30300
C854        C  0.34323003  0.98620916  0.05455286    -0.20500
C855        C  0.32524837  0.98460743  0.00952312    -0.08600
C856        C  0.33856284  0.99562363  0.96396706     0.30300
F857        F  0.32233092  0.99427136  0.91945360    -0.19100
H858        H  0.37995729  0.01289688  0.92723881     0.18700
H859        H  0.33355826  0.97796127  0.09014836     0.18700
F860        F  0.39156600  0.99685528  0.09736805    -0.19100
C861        C  0.52588716  0.03539310  0.77271870    -0.20500
C862        C  0.50601516  0.01492834  0.79968033    -0.08600
C863        C  0.48781351  0.99287918  0.77259536     0.30300
C864        C  0.48972674  0.99137110  0.71992596    -0.20500
C865        C  0.50972607  0.01168679  0.69296468    -0.08600
C866        C  0.52780117  0.03387324  0.71997373     0.30300
F867        F  0.54728876  0.05422123  0.69570725    -0.19100
H868        H  0.54021017  0.05256956  0.79247003     0.18700
H869        H  0.47546677  0.97410233  0.70026460     0.18700
F870        F  0.46836767  0.97243174  0.79674097    -0.19100
C871        C  0.48467499  0.01510448  0.27154636    -0.20500
C872        C  0.51038558  0.00369901  0.29975509    -0.08600
C873        C  0.53634094  0.99116971  0.27370458     0.30300
C874        C  0.53671613  0.99107801  0.22057593    -0.20500
C875        C  0.51131256  0.00337664  0.19246434    -0.08600
C876        C  0.48492759  0.01477542  0.21864903     0.30300
F877        F  0.45910066  0.02546241  0.19324696    -0.19100
H878        H  0.46415432  0.02423843  0.29048048     0.18700
H879        H  0.55723339  0.98208263  0.20146751     0.18700
F880        F  0.56181243  0.97988985  0.29936756    -0.19100
C881        C  0.46835463  0.37853997  0.52059504    -0.20500
C882        C  0.47469801  0.34956697  0.49753716    -0.08600
C883        C  0.44969406  0.33346975  0.47345853     0.30300
C884        C  0.41921458  0.34617014  0.47297597    -0.20500
C885        C  0.41291274  0.37514490  0.49632924    -0.08600
C886        C  0.43807937  0.39127419  0.51992770     0.30300
F887        F  0.43376796  0.41971694  0.54194874    -0.19100
H888        H  0.48701310  0.39170718  0.53896128     0.18700
H889        H  0.40049567  0.33319004  0.45443650     0.18700
F890        F  0.45446498  0.30527084  0.45089784    -0.19100
C891        C  0.52873984  0.14219004  0.54020424    -0.20500
C892        C  0.52118541  0.12840646  0.49336408    -0.08600
C893        C  0.52263674  0.14691380  0.44902457     0.30300
C894        C  0.53218930  0.17852107  0.45179926    -0.20500
C895        C  0.54073568  0.19195136  0.49867416    -0.08600
C896        C  0.53841343  0.17349653  0.54300998     0.30300
F897        F  0.54571094  0.18555290  0.58921324    -0.19100
H898        H  0.52780643  0.12836882  0.57489941     0.18700
H899        H  0.53410523  0.19212783  0.41703523     0.18700
F900        F  0.51690045  0.13397889  0.40292743    -0.19100
C901        C  0.62019568  0.44178800  0.52194720    -0.20500
C902        C  0.63782407  0.41636922  0.50330767    -0.08600
C903        C  0.66761274  0.42264350  0.48259133     0.30300
C904        C  0.67938023  0.45340533  0.48113605    -0.20500
C905        C  0.66196843  0.47868596  0.50042214    -0.08600
C906        C  0.63202493  0.47257265  0.52056112     0.30300
F907        F  0.61390438  0.49631902  0.53822164    -0.19100
H908        H  0.59703489  0.43792082  0.53754460     0.18700
H909        H  0.70254075  0.45733277  0.46556225     0.18700
F910        F  0.68570612  0.39910991  0.46423615    -0.19100
C911        C  0.43912977  0.39874755  0.02028945    -0.20500
C912        C  0.41392654  0.38005552  0.00349435    -0.08600
C913        C  0.41957775  0.34871600  0.98989259     0.30300
C914        C  0.45020621  0.33661833  0.99167168    -0.20500
C915        C  0.47565338  0.35528501  0.00829798    -0.08600
C916        C  0.46963558  0.38643574  0.02352161     0.30300
F917        F  0.49325195  0.40531095  0.04027925    -0.19100
H918        H  0.43509715  0.42293661  0.03128032     0.18700
H919        H  0.45400655  0.31252282  0.98003691     0.18700
F920        F  0.39566915  0.33018040  0.97320040    -0.19100
C921        C  0.51298517  0.15307707  0.96730127    -0.20500
C922        C  0.51577149  0.13377830  0.01046892    -0.08600
C923        C  0.52856200  0.14627411  0.05533303     0.30300
C924        C  0.53962888  0.17732598  0.05610877    -0.20500
C925        C  0.53767894  0.19646744  0.01241186    -0.08600
C926        C  0.52342569  0.18424660  0.96825311     0.30300
F927        F  0.52127383  0.20169608  0.92498018    -0.19100
H928        H  0.50365744  0.14360382  0.93218575     0.18700
H929        H  0.55044004  0.18615543  0.09055703     0.18700
F930        F  0.53259248  0.12777044  0.09711510    -0.19100
C931        C  0.58893650  0.33790511  0.78295886    -0.20500
C932        C  0.58439193  0.30992667  0.81061005    -0.08600
C933        C  0.57935839  0.28168286  0.78445451     0.30300
C934        C  0.57964155  0.28130663  0.73143725    -0.20500
C935        C  0.58409637  0.30922410  0.70337619    -0.08600
C936        C  0.58826796  0.33774034  0.72972951     0.30300
F937        F  0.59255950  0.36527725  0.70421519    -0.19100
H938        H  0.59276002  0.35990492  0.80263776     0.18700
H939        H  0.57621273  0.25907922  0.71225773     0.18700
F940        F  0.57524418  0.25423260  0.81030940    -0.19100
C941        C  0.57926822  0.33286462  0.28507167    -0.20500
C942        C  0.59575971  0.30921169  0.31125453    -0.08600
C943        C  0.61235131  0.28651021  0.28407606     0.30300
C944        C  0.61157949  0.28692929  0.23104445    -0.20500
C945        C  0.59460281  0.31029025  0.20428119    -0.08600
C946        C  0.57894785  0.33375145  0.23202821     0.30300
F947        F  0.56268432  0.35712851  0.20819658    -0.19100
H948        H  0.56645709  0.35056832  0.30581941     0.18700
H949        H  0.62405529  0.26871492  0.21095282     0.18700
F950        F  0.62831345  0.26328662  0.30886373    -0.19100
C951        C  0.63301012  0.43886467  0.04565341    -0.20500
C952        C  0.64314310  0.41616033  0.01081227    -0.08600
C953        C  0.66740229  0.42421840  0.97710796     0.30300
C954        C  0.68025067  0.45452572  0.97723272    -0.20500
C955        C  0.66943217  0.47754811  0.01093845    -0.08600
C956        C  0.64599996  0.46913951  0.04598743     0.30300
F957        F  0.63534774  0.49010023  0.08043077    -0.19100
H958        H  0.61471860  0.43331655  0.07260321     0.18700
H959        H  0.69844348  0.46006821  0.95011478     0.18700
F960        F  0.67831472  0.40317171  0.94303778    -0.19100
C961        C  0.88715083  0.97262058  0.49863171    -0.20500
C962        C  0.85652775  0.97729690  0.47966389    -0.08600
C963        C  0.83964221  0.95105412  0.46141833     0.30300
C964        C  0.85262270  0.92077997  0.46467206    -0.20500
C965        C  0.88274190  0.91592695  0.48576789    -0.08600
C966        C  0.90027045  0.94244053  0.50130653     0.30300
F967        F  0.93016430  0.93937451  0.51911390    -0.19100
H968        H  0.90097934  0.99240273  0.51188242     0.18700
H969        H  0.83869577  0.90100129  0.45169988     0.18700
F970        F  0.81006715  0.95433009  0.44231240    -0.19100
C971        C  0.68147756  0.01479889  0.45165033    -0.20500
C972        C  0.69530338  0.02885558  0.49465075    -0.08600
C973        C  0.67823004  0.02933066  0.54012979     0.30300
C974        C  0.64720942  0.01885196  0.54115828    -0.20500
C975        C  0.63236391  0.00746824  0.49718820    -0.08600
C976        C  0.65020178  0.00410822  0.45281638     0.30300
F977        F  0.63680249  0.99290156  0.40963383    -0.19100
H978        H  0.69424084  0.01368494  0.41635239     0.18700
H979        H  0.63423198  0.02105905  0.57612723     0.18700
F980        F  0.69107551  0.04095863  0.58346853    -0.19100
C981        C  0.71123039  0.23724382  0.46779832    -0.20500
C982        C  0.69378247  0.24094718  0.51253297    -0.08600
C983        C  0.70094797  0.22142470  0.55446658     0.30300
C984        C  0.72321822  0.19741679  0.55045314    -0.20500
C985        C  0.73917709  0.19224936  0.50479799    -0.08600
C986        C  0.73372802  0.21312321  0.46383879     0.30300
F987        F  0.74840271  0.20890709  0.41890896    -0.19100
H988        H  0.70615841  0.25181099  0.43483010     0.18700
H989        H  0.72732948  0.18215807  0.58296044     0.18700
F990        F  0.68571701  0.22485500  0.59911171    -0.19100
C991        C  0.92377575  0.15286581  0.54455716    -0.20500
C992        C  0.91090000  0.14368714  0.49771754    -0.08600
C993        C  0.92917227  0.14624942  0.45387102     0.30300
C994        C  0.96020905  0.15705949  0.45712085    -0.20500
C995        C  0.97324504  0.16629456  0.50392863    -0.08600
C996        C  0.95450698  0.16463779  0.54764212     0.30300
F997        F  0.96620424  0.17333028  0.59355528    -0.19100
H998        H  0.91002425  0.15073807  0.57880204     0.18700
H999        H  0.97404766  0.15838346  0.42288745     0.18700
F1000       F  0.91743377  0.13699761  0.40829671    -0.19100
C1001       C  0.88564419  0.97410923  0.99151286    -0.20500
C1002       C  0.85316764  0.97873549  0.99682063    -0.08600
C1003       C  0.83349317  0.95215877  0.00173166     0.30300
C1004       C  0.84620277  0.92169420  0.00095405    -0.20500
C1005       C  0.87876757  0.91717945  0.99681224    -0.08600
C1006       C  0.89841242  0.94373309  0.99220955     0.30300
F1007       F  0.92996173  0.94029475  0.98736616    -0.19100
H1008       H  0.90127349  0.99412435  0.98757339     0.18700
H1009       H  0.83064600  0.90160547  0.00466948     0.18700
F1010       F  0.80191757  0.95557168  0.00619346    -0.19100
C1011       C  0.67305516  0.05254396  0.94863901    -0.20500
C1012       C  0.69386721  0.04178229  0.98655465    -0.08600
C1013       C  0.68286550  0.01974434  0.02261203     0.30300
C1014       C  0.65120335  0.01037563  0.02221632    -0.20500
C1015       C  0.63005677  0.02270912  0.98592174    -0.08600
C1016       C  0.64170855  0.04320824  0.94807560     0.30300
F1017       F  0.62272702  0.05512381  0.91092449    -0.19100
H1018       H  0.68077220  0.06901356  0.91973469     0.18700
H1019       H  0.64301426  0.99440923  0.05147883     0.18700
F1020       F  0.70230660  0.00795196  0.05917128    -0.19100
C1021       C  0.72407379  0.20683085  0.94451857    -0.20500
C1022       C  0.74230930  0.19855161  0.98751936    -0.08600
C1023       C  0.73751428  0.21527781  0.03280022     0.30300
C1024       C  0.71345951  0.23782172  0.03576528    -0.20500
C1025       C  0.69445025  0.24500881  0.99335380    -0.08600
C1026       C  0.70066009  0.23002432  0.94716405     0.30300
F1027       F  0.68244357  0.23598149  0.90562162    -0.19100
H1028       H  0.72714501  0.19445822  0.90912627     0.18700
H1029       H  0.70902996  0.24905546  0.07175588     0.18700
F1030       F  0.75448928  0.20832950  0.07526922    -0.19100
C1031       C  0.78030966  0.08975554  0.71407384    -0.20500
C1032       C  0.80773280  0.08198142  0.68771233    -0.08600
C1033       C  0.83537332  0.07535480  0.71572695     0.30300
C1034       C  0.83542250  0.07714600  0.76880089    -0.20500
C1035       C  0.80803390  0.08555279  0.79495291    -0.08600
C1036       C  0.78032767  0.09153323  0.76679273     0.30300
F1037       F  0.75299655  0.09908363  0.78990383    -0.19100
H1038       H  0.75857876  0.09476065  0.69384829     0.18700
H1039       H  0.85704111  0.07221175  0.78938082     0.18700
F1040       F  0.86246282  0.06759558  0.69208895    -0.19100
C1041       C  0.80558822  0.12281124  0.21418193    -0.20500
C1042       C  0.80503666  0.09417632  0.18764283    -0.08600
C1043       C  0.80451545  0.06576864  0.21547637     0.30300
C1044       C  0.80386043  0.06611323  0.26833059    -0.20500
C1045       C  0.80387152  0.09464581  0.29498371    -0.08600
C1046       C  0.80500727  0.12314160  0.26732178     0.30300
F1047       F  0.80483820  0.15130779  0.29132998    -0.19100
H1048       H  0.80596856  0.14504431  0.19377993     0.18700
H1049       H  0.80351241  0.04378498  0.28846268     0.18700
F1050       F  0.80504104  0.03748783  0.19183853    -0.19100
C1051       C  0.93067635  0.14816139  0.04173279    -0.20500
C1052       C  0.91513261  0.14367203  0.99515129    -0.08600
C1053       C  0.93079307  0.15106107  0.94989065     0.30300
C1054       C  0.96128618  0.16344856  0.95137848    -0.20500
C1055       C  0.97709904  0.16748075  0.99789215    -0.08600
C1056       C  0.96163273  0.15944028  0.04317302     0.30300
F1057       F  0.97618472  0.16312499  0.08880853    -0.19100
H1058       H  0.91907708  0.14220170  0.07694211     0.18700
H1059       H  0.97280221  0.16937298  0.91608581     0.18700
F1060       F  0.91639260  0.14671913  0.90429381    -0.19100
loop_ 
_geom_bond_atom_site_label_1 
_geom_bond_atom_site_label_2 
_geom_bond_distance 
_geom_bond_site_symmetry_2 
_ccdc_geom_bond_type 
Zn1           O5   1.945       .  S
Zn1           O6   2.001       .  S
Zn1          O10   1.995       .  S
Zn1          O17   2.021       .  S
Zn2           O5   1.966   1_554  S
Zn2           O7   2.025       .  S
Zn2           O9   2.020       .  S
Zn2          O13   2.012       .  S
Zn3           O5   1.967       .  S
Zn3           O8   2.027       .  S
Zn3          O11   2.035       .  S
Zn3          O14   2.013       .  S
Zn4           O5   1.974   1_554  S
Zn4          O12   2.043       .  S
Zn4          O15   2.021       .  S
Zn4          O16   2.066       .  S
O6           C18   1.273       .  A
O7           C19   1.273   1_554  A
O8           C20   1.274       .  A
O9           C18   1.272   1_554  A
O10          C20   1.272       .  A
O11          C19   1.275       .  A
O12          C21   1.278   1_554  A
O13          C22   1.275       .  A
O14          C21   1.274       .  A
O15          C22   1.274       .  A
O16          C23   1.279   1_554  A
O17          C23   1.273       .  A
C18        C1012   1.485       .  S
C19        C1002   1.485   1_545  S
C20        C1035   1.484       .  S
C21        C1052   1.475       .  S
C22        C1042   1.483       .  S
C23        C1022   1.495       .  S
Zn24         O28   1.966       .  S
Zn24         O29   2.005       .  S
Zn24         O33   2.030       .  S
Zn24         O40   2.023       .  S
Zn25         O28   1.981       .  S
Zn25         O30   2.032       .  S
Zn25         O32   2.047       .  S
Zn25         O36   2.065       .  S
Zn26         O28   1.966       .  S
Zn26         O31   2.020       .  S
Zn26         O34   2.003       .  S
Zn26         O37   2.037       .  S
Zn27         O28   1.938       .  S
Zn27         O35   2.004       .  S
Zn27         O38   2.007       .  S
Zn27         O39   1.995       .  S
O29          C41   1.272       .  A
O30          C42   1.276       .  A
O31          C43   1.273       .  A
O32          C41   1.278       .  A
O33          C43   1.276       .  A
O34          C42   1.274       .  A
O35          C44   1.273       .  A
O36          C45   1.278       .  A
O37          C44   1.274       .  A
O38          C45   1.273       .  A
O39          C46   1.272       .  A
O40          C46   1.273       .  A
C41         C992   1.472       .  S
C42        C1045   1.483       .  S
C43         C962   1.487   1_545  S
C44         C972   1.485       .  S
C45         C985   1.490       .  S
C46        C1032   1.484       .  S
Zn47         O51   1.962       .  S
Zn47         O52   2.028       .  S
Zn47         O56   2.026       .  S
Zn47         O63   2.014       .  S
Zn48         O51   1.967   1_556  S
Zn48         O53   2.032       .  S
Zn48         O55   2.058       .  S
Zn48         O59   2.029       .  S
Zn49         O51   1.956   1_556  S
Zn49         O54   2.001       .  S
Zn49         O57   2.019       .  S
Zn49         O60   2.021       .  S
Zn50         O51   1.964       .  S
Zn50         O58   2.042       .  S
Zn50         O61   2.013       .  S
Zn50         O62   2.020       .  S
O52          C64   1.274   1_554  A
O53          C65   1.274       .  A
O54          C66   1.272   1_556  A
O55          C64   1.277       .  A
O56          C66   1.275       .  A
O57          C65   1.274       .  A
O58          C67   1.276       .  A
O59          C68   1.277   1_556  A
O60          C67   1.274   1_556  A
O61          C68   1.275       .  A
O62          C69   1.274       .  A
O63          C69   1.274       .  A
C64        C1025   1.485       .  S
C65         C932   1.474       .  S
C66         C925   1.480       .  S
C67         C915   1.489       .  S
C68         C952   1.486       .  S
C69         C945   1.485       .  S
Zn70         O74   1.972       .  S
Zn70         O75   2.020       .  S
Zn70         O79   2.050       .  S
Zn70         O86   2.040       .  S
Zn71         O74   1.966       .  S
Zn71         O76   2.022       .  S
Zn71         O78   2.009       .  S
Zn71         O82   2.025       .  S
Zn72         O74   1.948       .  S
Zn72         O77   2.020       .  S
Zn72         O80   2.015       .  S
Zn72         O83   2.023       .  S
Zn73         O74   1.960       .  S
Zn73         O81   2.033       .  S
Zn73         O84   2.031       .  S
Zn73         O85   2.017       .  S
O75          C87   1.273       .  A
O76          C88   1.273       .  A
O77          C89   1.275       .  A
O78          C87   1.272       .  A
O79          C89   1.277       .  A
O80          C88   1.274       .  A
O81          C90   1.275       .  A
O82          C91   1.274       .  A
O83          C90   1.275       .  A
O84          C91   1.276       .  A
O85          C92   1.275       .  A
O86          C92   1.278       .  A
C87         C942   1.465       .  S
C88         C895   1.482       .  S
C89         C982   1.490       .  S
C90         C935   1.485       .  S
C91         C882   1.491       .  S
C92         C902   1.490       .  S
Zn93         O97   1.935       .  S
Zn93         O98   1.987       .  S
Zn93        O102   1.999       .  S
Zn93        O109   1.968       .  S
Zn94         O97   1.958   1_554  S
Zn94         O99   2.044       .  S
Zn94        O101   2.041       .  S
Zn94        O105   1.981       .  S
Zn95         O97   1.933   1_565  S
Zn95        O100   1.993       .  S
Zn95        O103   1.988       .  S
Zn95        O106   1.969       .  S
Zn96         O97   1.991   1_564  S
Zn96        O104   2.058       .  S
Zn96        O107   2.048       .  S
Zn96        O108   2.064       .  S
O98         C110   1.270   1_556  A
O99         C111   1.275       .  A
O100        C112   1.269   1_565  A
O101        C110   1.275       .  A
O102        C112   1.270       .  A
O103        C111   1.270   1_566  A
O104        C113   1.278   1_554  A
O105        C114   1.270       .  A
O106        C113   1.269       .  A
O107        C114   1.278   1_565  A
O108        C115   1.279   1_564  A
O109        C115   1.269       .  A
C110        C922   1.470       .  S
C111        C852   1.473       .  S
C112        C862   1.478       .  S
C113        C842   1.479       .  S
C114        C875   1.482       .  S
C115       C1015   1.485       .  S
Zn116       O120   1.984       .  S
Zn116       O121   2.084       .  S
Zn116       O125   2.040       .  S
Zn116       O132   2.069       .  S
Zn117       O120   1.936   1_565  S
Zn117       O122   1.981       .  S
Zn117       O124   1.975       .  S
Zn117       O128   1.992       .  S
Zn118       O120   1.974   1_565  S
Zn118       O123   1.997       .  S
Zn118       O126   2.031       .  S
Zn118       O129   2.050       .  S
Zn119       O120   1.934       .  S
Zn119       O127   1.986       .  S
Zn119       O130   1.999       .  S
Zn119       O131   1.969       .  S
O121        C133   1.281       .  A
O122        C134   1.270       .  A
O123        C135   1.272   1_565  A
O124        C133   1.269   1_565  A
O125        C135   1.279       .  A
O126        C134   1.275       .  A
O127        C136   1.271       .  A
O128        C137   1.269   1_565  A
O129        C136   1.275   1_565  A
O130        C137   1.269       .  A
O131        C138   1.269       .  A
O132        C138   1.280       .  A
C133        C835   1.487       .  S
C134        C822   1.473       .  S
C135        C872   1.482       .  S
C136        C975   1.481       .  S
C137        C865   1.478       .  S
C138        C892   1.477       .  S
Zn139       O143   1.956       .  S
Zn139       O144   2.019       .  S
Zn139       O148   2.027       .  S
Zn139       O155   2.024       .  S
Zn140       O143   1.960       .  S
Zn140       O145   2.020       .  S
Zn140       O147   2.030       .  S
Zn140       O151   2.017       .  S
Zn141       O143   1.965   1_554  S
Zn141       O146   2.007       .  S
Zn141       O149   2.025       .  S
Zn141       O152   2.021       .  S
Zn142       O143   1.964   1_554  S
Zn142       O150   2.018       .  S
Zn142       O153   2.030       .  S
Zn142       O154   2.053       .  S
O144        C156   1.274       .  A
O145        C157   1.274       .  A
O146        C158   1.272   1_554  A
O147        C156   1.275       .  A
O148        C158   1.277       .  A
O149        C157   1.274   1_554  A
O150        C159   1.273       .  A
O151        C160   1.275       .  A
O152        C159   1.274       .  A
O153        C160   1.276   1_554  A
O154        C161   1.278   1_554  A
O155        C161   1.274       .  A
C156        C792   1.477       .  S
C157        C772   1.477       .  S
C158        C845   1.484       .  S
C159        C802   1.471       .  S
C160        C812   1.488       .  S
C161        C782   1.484       .  S
Zn162       O166   1.957       .  S
Zn162       O167   2.009       .  S
Zn162       O171   2.012       .  S
Zn162       O178   2.008       .  S
Zn163       O166   1.950       .  S
Zn163       O168   1.994       .  S
Zn163       O170   2.010       .  S
Zn163       O174   2.017       .  S
Zn164       O166   1.963       .  S
Zn164       O169   2.033       .  S
Zn164       O172   2.045       .  S
Zn164       O175   2.027       .  S
Zn165       O166   1.970       .  S
Zn165       O173   2.049       .  S
Zn165       O176   2.053       .  S
Zn165       O177   2.039       .  S
O167        C179   1.272       .  A
O168        C180   1.272       .  A
O169        C181   1.276       .  A
O170        C179   1.271       .  A
O171        C181   1.272       .  A
O172        C180   1.276       .  A
O173        C182   1.279       .  A
O174        C183   1.274       .  A
O175        C182   1.276       .  A
O176        C183   1.278       .  A
O177        C184   1.276       .  A
O178        C184   1.273       .  A
C179        C825   1.470       .  S
C180        C805   1.481       .  S
C181        C742   1.480       .  S
C182        C765   1.488       .  S
C183        C752   1.492       .  S
C184        C795   1.480       .  S
Zn185       O189   1.959       .  S
Zn185       O190   2.028       .  S
Zn185       O194   2.026       .  S
Zn185       O201   2.017       .  S
Zn186       O189   1.963   1_556  S
Zn186       O191   2.012       .  S
Zn186       O193   2.019       .  S
Zn186       O197   2.024   1_565  S
Zn187       O189   1.976   1_556  S
Zn187       O192   2.049       .  S
Zn187       O195   2.024       .  S
Zn187       O198   2.051       .  S
Zn188       O189   1.960       .  S
Zn188       O196   2.020       .  S
Zn188       O199   2.028       .  S
Zn188       O200   2.031       .  S
O190        C202   1.275       .  A
O191        C203   1.273       .  A
O192        C204   1.277   1_556  A
O193        C202   1.274   1_556  A
O194        C204   1.275       .  A
O195        C203   1.274       .  A
O196        C205   1.276       .  A
O197        C206   1.273       .  A
O198        C205   1.279   1_556  A
O199        C206   1.275   1_564  A
O200        C207   1.274       .  A
O201        C207   1.274       .  A
C202        C855   1.484       .  S
C203        C712   1.474       .  S
C204        C785   1.489       .  S
C205        C735   1.493       .  S
C206        C705   1.491       .  S
C207        C722   1.477       .  S
Zn208       O212   1.969       .  S
Zn208       O213   2.041       .  S
Zn208       O217   2.022       .  S
Zn208       O224   2.044       .  S
Zn209       O212   1.964       .  S
Zn209       O214   2.043       .  S
Zn209       O216   2.033       .  S
Zn209       O220   2.032       .  S
Zn210       O212   1.967       .  S
Zn210       O215   2.026       .  S
Zn210       O218   2.023       .  S
Zn210       O221   2.020   1_565  S
Zn211       O212   1.960       .  S
Zn211       O219   2.020       .  S
Zn211       O222   2.006       .  S
Zn211       O223   2.002       .  S
O213        C225   1.275       .  A
O214        C226   1.278       .  A
O215        C227   1.274       .  A
O216        C225   1.275       .  A
O217        C227   1.274       .  A
O218        C226   1.274       .  A
O219        C228   1.273   1_565  A
O220        C229   1.275       .  A
O221        C228   1.273       .  A
O222        C229   1.272       .  A
O223        C230   1.272       .  A
O224        C230   1.278       .  A
C225        C755   1.478       .  S
C226        C832   1.488       .  S
C227        C725   1.478       .  S
C228        C682   1.482       .  S
C229        C715   1.475       .  S
C230        C692   1.487       .  S
Zn231       O235   1.960       .  S
Zn231       O236   2.026       .  S
Zn231       O240   2.035       .  S
Zn231       O247   2.016       .  S
Zn232       O235   1.965   1_556  S
Zn232       O237   2.024       .  S
Zn232       O239   2.028   1_655  S
Zn232       O243   2.013       .  S
Zn233       O235   1.943       .  S
Zn233       O238   1.992       .  S
Zn233       O241   2.006       .  S
Zn233       O244   1.993       .  S
Zn234       O235   1.982   1_556  S
Zn234       O242   2.063       .  S
Zn234       O245   2.045       .  S
Zn234       O246   2.050       .  S
O236        C248   1.275   1_655  A
O237        C249   1.273   1_556  A
O238        C250   1.270       .  A
O239        C248   1.275   1_556  A
O240        C250   1.274       .  A
O241        C249   1.271       .  A
O242        C251   1.278   1_556  A
O243        C252   1.275       .  A
O244        C251   1.272       .  A
O245        C252   1.277       .  A
O246        C253   1.278       .  A
O247        C253   1.274   1_554  A
C248        C732   1.490       .  S
C249        C642   1.482       .  S
C250        C672   1.473       .  S
C251        C652   1.488       .  S
C252        C662   1.479       .  S
C253       C1005   1.482       .  S
Zn254       O258   1.978       .  S
Zn254       O259   2.027       .  S
Zn254       O263   2.039       .  S
Zn254       O270   2.066       .  S
Zn255       O258   1.960       .  S
Zn255       O260   2.000   1_655  S
Zn255       O262   2.005       .  S
Zn255       O266   2.025       .  S
Zn256       O258   1.963       .  S
Zn256       O261   2.024       .  S
Zn256       O264   2.037       .  S
Zn256       O267   2.049       .  S
Zn257       O258   1.936       .  S
Zn257       O265   2.001       .  S
Zn257       O268   2.009       .  S
Zn257       O269   1.990       .  S
O259        C271   1.274       .  A
O260        C272   1.272       .  A
O261        C273   1.276       .  A
O262        C271   1.273       .  A
O263        C273   1.278       .  A
O264        C272   1.277   1_655  A
O265        C274   1.271       .  A
O266        C275   1.272       .  A
O267        C274   1.276       .  A
O268        C275   1.272       .  A
O269        C276   1.273       .  A
O270        C276   1.279       .  A
C271        C675   1.473       .  S
C272        C695   1.487       .  S
C273        C965   1.490       .  S
C274        C665   1.480       .  S
C275        C622   1.484       .  S
C276        C632   1.490       .  S
Zn277       O281   1.940       .  S
Zn277       O282   2.005       .  S
Zn277       O286   2.006       .  S
Zn277       O293   2.003       .  S
Zn278       O281   1.971   1_556  S
Zn278       O283   2.032       .  S
Zn278       O285   2.043       .  S
Zn278       O289   2.038       .  S
Zn279       O281   1.962   1_556  S
Zn279       O284   2.036       .  S
Zn279       O287   2.022       .  S
Zn279       O290   2.014       .  S
Zn280       O281   1.958       .  S
Zn280       O288   2.023       .  S
Zn280       O291   2.009       .  S
Zn280       O292   2.026       .  S
O282        C294   1.274       .  A
O283        C295   1.276       .  A
O284        C296   1.275   1_556  A
O285        C294   1.276   1_556  A
O286        C296   1.273       .  A
O287        C295   1.274       .  A
O288        C297   1.274       .  A
O289        C298   1.277       .  A
O290        C297   1.274   1_556  A
O291        C298   1.274   1_554  A
O292        C299   1.273       .  A
O293        C299   1.271       .  A
C294        C655   1.486       .  S
C295        C605   1.475       .  S
C296        C592   1.483       .  S
C297        C955   1.487       .  S
C298        C775   1.480       .  S
C299        C612   1.475       .  S
Zn300       O304   1.941       .  S
Zn300       O305   1.999       .  S
Zn300       O309   2.019       .  S
Zn300       O316   2.011       .  S
Zn301       O304   1.983       .  S
Zn301       O306   2.034       .  S
Zn301       O308   2.061       .  S
Zn301       O312   2.039       .  S
Zn302       O304   1.961       .  S
Zn302       O307   2.017       .  S
Zn302       O310   2.000       .  S
Zn302       O313   2.014       .  S
Zn303       O304   1.960       .  S
Zn303       O311   2.028       .  S
Zn303       O314   2.013       .  S
Zn303       O315   2.039       .  S
O305        C317   1.273       .  A
O306        C318   1.275       .  A
O307        C319   1.272       .  A
O308        C317   1.278       .  A
O309        C319   1.274       .  A
O310        C318   1.273       .  A
O311        C320   1.274       .  A
O312        C321   1.277       .  A
O313        C320   1.273       .  A
O314        C321   1.275       .  A
O315        C322   1.276       .  A
O316        C322   1.273       .  A
C317        C635   1.490       .  S
C318        C615   1.473       .  S
C319        C582   1.484       .  S
C320        C905   1.485       .  S
C321        C745   1.478       .  S
C322        C602   1.482       .  S
Zn323       O327   1.960       .  S
Zn323       O328   2.024       .  S
Zn323       O332   2.020       .  S
Zn323       O339   2.011       .  S
Zn324       O327   1.958   1_556  S
Zn324       O329   2.031       .  S
Zn324       O331   2.026       .  S
Zn324       O335   2.013       .  S
Zn325       O327   1.948       .  S
Zn325       O330   1.994       .  S
Zn325       O333   2.015       .  S
Zn325       O336   2.011       .  S
Zn326       O327   1.973   1_556  S
Zn326       O334   2.049       .  S
Zn326       O337   2.019       .  S
Zn326       O338   2.049       .  S
O328        C340   1.274   1_554  A
O329        C341   1.275   1_556  A
O330        C342   1.272       .  A
O331        C340   1.274       .  A
O332        C342   1.273       .  A
O333        C341   1.273       .  A
O334        C343   1.277   1_556  A
O335        C344   1.275       .  A
O336        C343   1.273       .  A
O337        C344   1.273       .  A
O338        C345   1.279   1_556  A
O339        C345   1.275       .  A
C340       C1055   1.479   1_455  S
C341        C545   1.484       .  S
C342        C572   1.482       .  S
C343        C555   1.484       .  S
C344        C562   1.486       .  S
C345        C702   1.490       .  S
Zn346       O350   1.965       .  S
Zn346       O351   2.033       .  S
Zn346       O355   2.026       .  S
Zn346       O362   2.023       .  S
Zn347       O350   1.945       .  S
Zn347       O352   2.022       .  S
Zn347       O354   1.981       .  S
Zn347       O358   2.016       .  S
Zn348       O350   1.954       .  S
Zn348       O353   2.022       .  S
Zn348       O356   2.024       .  S
Zn348       O359   1.992       .  S
Zn349       O350   1.972       .  S
Zn349       O357   2.044       .  S
Zn349       O360   2.052       .  S
Zn349       O361   2.043       .  S
O351        C363   1.274       .  A
O352        C364   1.273       .  A
O353        C365   1.273       .  A
O354        C363   1.271       .  A
O355        C365   1.275       .  A
O356        C364   1.273       .  A
O357        C366   1.277       .  A
O358        C367   1.273       .  A
O359        C366   1.272       .  A
O360        C367   1.278       .  A
O361        C368   1.278       .  A
O362        C368   1.275       .  A
C363        C575   1.483       .  S
C364        C525   1.481       .  S
C365        C995   1.481   1_455  S
C366        C565   1.487       .  S
C367        C532   1.486       .  S
C368        C685   1.478       .  S
Zn369       O373   1.958       .  S
Zn369       O374   2.022       .  S
Zn369       O378   2.027       .  S
Zn369       O385   2.034       .  S
Zn370       O373   1.965   1_554  S
Zn370       O375   2.012       .  S
Zn370       O377   2.038       .  S
Zn370       O381   2.042       .  S
Zn371       O373   1.967   1_554  S
Zn371       O376   2.017       .  S
Zn371       O379   2.010       .  S
Zn371       O382   2.025       .  S
Zn372       O373   1.949       .  S
Zn372       O380   2.003       .  S
Zn372       O383   2.018       .  S
Zn372       O384   2.002       .  S
O374        C386   1.275       .  A
O375        C387   1.273       .  A
O376        C388   1.274   1_554  A
O377        C386   1.277   1_554  A
O378        C388   1.274       .  A
O379        C387   1.274       .  A
O380        C389   1.274       .  A
O381        C390   1.275   1_554  A
O382        C389   1.273   1_554  A
O383        C390   1.273       .  A
O384        C391   1.272       .  A
O385        C391   1.276       .  A
C386        C912   1.476   1_556  S
C387        C512   1.481       .  S
C388        C815   1.489       .  S
C389        C495   1.481       .  S
C390        C552   1.479   1_556  S
C391        C502   1.486       .  S
Zn392       O396   1.977       .  S
Zn392       O397   2.064       .  S
Zn392       O401   2.057       .  S
Zn392       O408   2.018       .  S
Zn393       O396   1.946       .  S
Zn393       O398   2.005       .  S
Zn393       O400   2.011       .  S
Zn393       O404   2.004       .  S
Zn394       O396   1.957       .  S
Zn394       O399   2.008       .  S
Zn394       O402   2.024       .  S
Zn394       O405   2.033       .  S
Zn395       O396   1.971       .  S
Zn395       O403   2.028       .  S
Zn395       O406   2.032       .  S
Zn395       O407   2.012       .  S
O397        C409   1.278       .  A
O398        C410   1.272       .  A
O399        C411   1.274       .  A
O400        C409   1.272       .  A
O401        C411   1.279       .  A
O402        C410   1.275       .  A
O403        C412   1.274       .  A
O404        C413   1.273       .  A
O405        C412   1.274       .  A
O406        C413   1.274       .  A
O407        C414   1.274       .  A
O408        C414   1.275       .  A
C409        C535   1.483       .  S
C410        C505   1.486       .  S
C411        C885   1.493       .  S
C412        C762   1.481       .  S
C413        C482   1.484       .  S
C414        C515   1.481       .  S
Zn415       O419   1.950   1_656  S
Zn415       O420   2.000       .  S
Zn415       O424   2.001       .  S
Zn415       O431   1.999       .  S
Zn416       O419   1.978       .  S
Zn416       O421   2.025       .  S
Zn416       O423   2.036       .  S
Zn416       O427   2.048       .  S
Zn417       O419   1.963   1_655  S
Zn417       O422   2.035       .  S
Zn417       O425   2.001       .  S
Zn417       O428   2.043       .  S
Zn418       O419   1.935   1_556  S
Zn418       O426   1.994       .  S
Zn418       O429   1.976       .  S
Zn418       O430   1.990       .  S
O420        C432   1.271   1_656  A
O421        C433   1.275       .  A
O422        C434   1.276   1_554  A
O423        C432   1.275       .  A
O424        C434   1.272       .  A
O425        C433   1.273   1_655  A
O426        C435   1.270   1_556  A
O427        C436   1.277   1_554  A
O428        C435   1.275   1_655  A
O429        C436   1.270       .  A
O430        C437   1.269       .  A
O431        C437   1.270   1_655  A
C432        C645   1.469       .  S
C433        C472   1.481       .  S
C434        C595   1.471   1_556  S
C435        C542   1.473       .  S
C436        C492   1.479       .  S
C437        C462   1.477       .  S
Zn438       O442   1.939       .  S
Zn438       O443   1.995       .  S
Zn438       O447   1.998       .  S
Zn438       O454   1.984       .  S
Zn439       O442   1.978   1_655  S
Zn439       O444   2.067       .  S
Zn439       O446   2.059       .  S
Zn439       O450   2.025       .  S
Zn440       O442   1.933   1_655  S
Zn440       O445   1.988       .  S
Zn440       O448   1.972       .  S
Zn440       O451   1.985       .  S
Zn441       O442   1.980       .  S
Zn441       O449   2.054       .  S
Zn441       O452   2.008       .  S
Zn441       O453   2.047       .  S
O443        C455   1.271       .  A
O444        C456   1.279       .  A
O445        C457   1.268   1_655  A
O446        C455   1.278   1_655  A
O447        C457   1.270       .  A
O448        C456   1.270       .  A
O449        C458   1.277       .  A
O450        C459   1.277   1_655  A
O451        C458   1.270   1_655  A
O452        C459   1.274       .  A
O453        C460   1.276       .  A
O454        C460   1.271       .  A
C455        C522   1.481       .  S
C456        C585   1.482       .  S
C457        C465   1.477       .  S
C458        C625   1.481       .  S
C459        C475   1.483       .  S
C460        C485   1.482       .  S
C461        C462   1.405   1_655  A
C461        C466   1.395       .  A
C461        H468   1.083       .  S
C462        C463   1.409       .  A
C463        C464   1.393       .  A
C463        F470   1.357       .  S
C464        C465   1.404       .  A
C464        H469   1.083       .  S
C465        C466   1.409   1_455  A
C466        F467   1.358       .  S
C471        C472   1.406   1_655  A
C471        C476   1.396       .  A
C471        H478   1.083       .  S
C472        C473   1.408       .  A
C473        C474   1.399       .  A
C473        F480   1.358       .  S
C474        C475   1.408       .  A
C474        H479   1.083       .  S
C475        C476   1.408   1_455  A
C476        F477   1.357       .  S
C481        C482   1.404       .  A
C481        C486   1.391       .  A
C481        H488   1.083       .  S
C482        C483   1.411       .  A
C483        C484   1.405       .  A
C483        F490   1.357       .  S
C484        C485   1.407       .  A
C484        H489   1.083       .  S
C485        C486   1.407       .  A
C486        F487   1.358       .  S
C491        C492   1.405   1_554  A
C491        C496   1.403       .  A
C491        H498   1.083       .  S
C492        C493   1.408       .  A
C493        C494   1.391       .  A
C493        F500   1.358       .  S
C494        C495   1.403       .  A
C494        H499   1.083       .  S
C495        C496   1.410   1_556  A
C496        F497   1.357       .  S
C501        C502   1.407       .  A
C501        C506   1.398       .  A
C501        H508   1.083       .  S
C502        C503   1.408       .  A
C503        C504   1.398       .  A
C503        F510   1.357       .  S
C504        C505   1.406       .  A
C504        H509   1.083       .  S
C505        C506   1.410       .  A
C506        F507   1.358       .  S
C511        C512   1.406       .  A
C511        C516   1.397       .  A
C511        H518   1.083       .  S
C512        C513   1.409       .  A
C513        C514   1.396       .  A
C513        F520   1.357       .  S
C514        C515   1.405       .  A
C514        H519   1.083       .  S
C515        C516   1.409       .  A
C516        F517   1.358       .  S
C521        C522   1.404       .  A
C521        C526   1.402       .  A
C521        H528   1.083       .  S
C522        C523   1.409       .  A
C523        C524   1.399       .  A
C523        F530   1.358       .  S
C524        C525   1.404       .  A
C524        H529   1.084       .  S
C525        C526   1.408       .  A
C526        F527   1.357       .  S
C531        C532   1.408       .  A
C531        C536   1.404       .  A
C531        H538   1.083       .  S
C532        C533   1.406       .  A
C533        C534   1.401       .  A
C533        F540   1.357       .  S
C534        C535   1.406       .  A
C534        H539   1.083       .  S
C535        C536   1.406       .  A
C536        F537   1.358       .  S
C541        C542   1.402   1_556  A
C541        C546   1.398       .  A
C541        H548   1.083       .  S
C542        C543   1.404       .  A
C543        C544   1.401       .  A
C543        F550   1.358       .  S
C544        C545   1.409       .  A
C544        H549   1.083       .  S
C545        C546   1.408   1_554  A
C546        F547   1.357       .  S
C551        C552   1.404   1_556  A
C551        C556   1.402       .  A
C551        H558   1.083       .  S
C552        C553   1.405       .  A
C553        C554   1.401       .  A
C553        F560   1.358       .  S
C554        C555   1.407       .  A
C554        H559   1.083       .  S
C555        C556   1.408   1_554  A
C556        F557   1.357       .  S
C561        C562   1.403       .  A
C561        C566   1.393       .  A
C561        H568   1.083       .  S
C562        C563   1.412       .  A
C563        C564   1.402       .  A
C563        F570   1.357       .  S
C564        C565   1.407       .  A
C564        H569   1.083       .  S
C565        C566   1.411       .  A
C566        F567   1.357       .  S
C571        C572   1.408       .  A
C571        C576   1.402       .  A
C571        H578   1.083       .  S
C572        C573   1.407       .  A
C573        C574   1.389       .  A
C573        F580   1.358       .  S
C574        C575   1.405       .  A
C574        H579   1.083       .  S
C575        C576   1.409       .  A
C576        F577   1.357       .  S
C581        C582   1.410       .  A
C581        C586   1.405       .  A
C581        H588   1.083       .  S
C582        C583   1.406       .  A
C583        C584   1.393       .  A
C583        F590   1.358       .  S
C584        C585   1.406       .  A
C584        H589   1.083       .  S
C585        C586   1.406       .  A
C586        F587   1.357       .  S
C591        C592   1.407   1_556  A
C591        C596   1.402       .  A
C591        H598   1.080       .  S
C592        C593   1.409       .  A
C593        C594   1.398       .  A
C593        F600   1.358       .  S
C594        C595   1.401       .  A
C594        H599   1.080       .  S
C595        C596   1.405   1_554  A
C596        F597   1.358       .  S
C601        C602   1.407       .  A
C601        C606   1.399       .  A
C601        H608   1.083       .  S
C602        C603   1.408       .  A
C603        C604   1.402       .  A
C603        F610   1.357       .  S
C604        C605   1.404       .  A
C604        H609   1.083       .  S
C605        C606   1.404       .  A
C606        F607   1.358       .  S
C611        C612   1.405       .  A
C611        C616   1.401       .  A
C611        H618   1.083       .  S
C612        C613   1.406       .  A
C613        C614   1.395       .  A
C613        F620   1.358       .  S
C614        C615   1.402       .  A
C614        H619   1.084       .  S
C615        C616   1.406       .  A
C616        F617   1.357       .  S
C621        C622   1.404       .  A
C621        C626   1.394       .  A
C621        H628   1.083       .  S
C622        C623   1.411       .  A
C623        C624   1.404   1_655  A
C623        F630   1.357   1_655  S
C624        C625   1.404       .  A
C624        H629   1.083       .  S
C625        C626   1.408   1_455  A
C626        F627   1.358       .  S
C631        C632   1.405       .  A
C631        C636   1.392       .  A
C631        H638   1.083       .  S
C632        C633   1.410       .  A
C633        C634   1.409       .  A
C633        F640   1.357       .  S
C634        C635   1.409       .  A
C634        H639   1.083       .  S
C635        C636   1.409       .  A
C636        F637   1.358       .  S
C641        C642   1.406   1_556  A
C641        C646   1.399   1_655  A
C641        H648   1.083       .  S
C642        C643   1.411       .  A
C643        C644   1.398       .  A
C643        F650   1.358       .  S
C644        C645   1.401   1_655  A
C644        H649   1.084       .  S
C645        C646   1.404   1_554  A
C646        F647   1.357       .  S
C651        C652   1.407   1_556  A
C651        C656   1.407       .  A
C651        H658   1.083       .  S
C652        C653   1.410       .  A
C653        C654   1.393       .  A
C653        F660   1.358       .  S
C654        C655   1.404       .  A
C654        H659   1.083       .  S
C655        C656   1.410   1_554  A
C656        F657   1.357       .  S
C661        C662   1.406       .  A
C661        C666   1.404       .  A
C661        H668   1.083       .  S
C662        C663   1.406       .  A
C663        C664   1.397       .  A
C663        F670   1.358       .  S
C664        C665   1.405       .  A
C664        H669   1.083       .  S
C665        C666   1.407       .  A
C666        F667   1.357       .  S
C671        C672   1.404       .  A
C671        C676   1.395       .  A
C671        H678   1.084       .  S
C672        C673   1.405       .  A
C673        C674   1.401       .  A
C673        F680   1.357       .  S
C674        C675   1.405       .  A
C674        H679   1.083       .  S
C675        C676   1.405       .  A
C676        F677   1.358       .  S
C681        C682   1.406       .  A
C681        C686   1.399       .  A
C681        H688   1.083       .  S
C682        C683   1.409       .  A
C683        C684   1.401       .  A
C683        F690   1.358       .  S
C684        C685   1.405       .  A
C684        H689   1.083       .  S
C685        C686   1.405       .  A
C686        F687   1.357       .  S
C691        C692   1.404       .  A
C691        C696   1.398       .  A
C691        H698   1.083       .  S
C692        C693   1.412       .  A
C693        C694   1.399       .  A
C693        F700   1.358       .  S
C694        C695   1.405       .  A
C694        H699   1.083       .  S
C695        C696   1.412       .  A
C696        F697   1.357       .  S
C701        C702   1.407   1_556  A
C701        C706   1.404       .  A
C701        H708   1.083       .  S
C702        C703   1.410       .  A
C703        C704   1.397       .  A
C703        F710   1.357       .  S
C704        C705   1.405   1_554  A
C704        H709   1.083       .  S
C705        C706   1.412       .  A
C706        F707   1.357       .  S
C711        C712   1.405       .  A
C711        C716   1.401       .  A
C711        H718   1.083       .  S
C712        C713   1.405       .  A
C713        C714   1.396       .  A
C713        F720   1.358       .  S
C714        C715   1.404       .  A
C714        H719   1.083       .  S
C715        C716   1.406       .  A
C716        F717   1.357       .  S
C721        C722   1.405       .  A
C721        C726   1.402       .  A
C721        H728   1.083       .  S
C722        C723   1.405       .  A
C723        C724   1.398       .  A
C723        F730   1.357       .  S
C724        C725   1.403       .  A
C724        H729   1.084       .  S
C725        C726   1.407       .  A
C726        F727   1.358       .  S
C731        C732   1.408   1_556  A
C731        C736   1.403       .  A
C731        H738   1.083       .  S
C732        C733   1.409       .  A
C733        C734   1.399       .  A
C733        F740   1.358       .  S
C734        C735   1.408       .  A
C734        H739   1.083       .  S
C735        C736   1.410   1_554  A
C736        F737   1.357       .  S
C741        C742   1.408       .  A
C741        C746   1.403       .  A
C741        H748   1.083       .  S
C742        C743   1.405       .  A
C743        C744   1.397       .  A
C743        F750   1.357       .  S
C744        C745   1.404       .  A
C744        H749   1.084       .  S
C745        C746   1.406       .  A
C746        F747   1.358       .  S
C751        C752   1.409       .  A
C751        C756   1.400       .  A
C751        H758   1.083       .  S
C752        C753   1.411       .  A
C753        C754   1.405       .  A
C753        F760   1.357       .  S
C754        C755   1.404       .  A
C754        H759   1.083       .  S
C755        C756   1.404       .  A
C756        F757   1.358       .  S
C761        C762   1.404       .  A
C761        C766   1.403       .  A
C761        H768   1.083       .  S
C762        C763   1.405       .  A
C763        C764   1.401       .  A
C763        F770   1.358       .  S
C764        C765   1.408       .  A
C764        H769   1.083       .  S
C765        C766   1.409       .  A
C766        F767   1.357       .  S
C771        C772   1.405       .  A
C771        C776   1.402       .  A
C771        H778   1.083       .  S
C772        C773   1.405       .  A
C773        C774   1.398       .  A
C773        F780   1.358       .  S
C774        C775   1.405       .  A
C774        H779   1.083   1_556  S
C775        C776   1.408       .  A
C776        F777   1.357       .  S
C781        C782   1.406       .  A
C781        C786   1.405       .  A
C781        H788   1.083       .  S
C782        C783   1.406   1_556  A
C783        C784   1.402       .  A
C783        F790   1.357       .  S
C784        C785   1.406       .  A
C784        H789   1.083       .  S
C785        C786   1.410   1_554  A
C786        F787   1.358       .  S
C791        C792   1.403       .  A
C791        C796   1.400       .  A
C791        H798   1.083       .  S
C792        C793   1.406       .  A
C793        C794   1.400       .  A
C793        F800   1.357       .  S
C794        C795   1.404       .  A
C794        H799   1.083       .  S
C795        C796   1.409       .  A
C796        F797   1.358       .  S
C801        C802   1.404       .  A
C801        C806   1.402       .  A
C801        H808   1.083       .  S
C802        C803   1.402       .  A
C803        C804   1.396       .  A
C803        F810   1.358       .  S
C804        C805   1.407       .  A
C804        H809   1.083       .  S
C805        C806   1.408       .  A
C806        F807   1.357       .  S
C811        C812   1.407       .  A
C811        C816   1.400       .  A
C811        H818   1.083       .  S
C812        C813   1.409   1_556  A
C813        C814   1.399       .  A
C813        F820   1.357       .  S
C814        C815   1.407   1_554  A
C814        H819   1.083       .  S
C815        C816   1.410       .  A
C816        F817   1.357       .  S
C821        C822   1.404       .  A
C821        C826   1.399       .  A
C821        H828   1.083       .  S
C822        C823   1.408       .  A
C823        C824   1.394       .  A
C823        F830   1.358       .  S
C824        C825   1.401       .  A
C824        H829   1.084       .  S
C825        C826   1.406       .  A
C826        F827   1.358       .  S
C831        C832   1.403       .  A
C831        C836   1.398       .  A
C831        H838   1.083       .  S
C832        C833   1.412       .  A
C833        C834   1.405   1_565  A
C833        F840   1.357       .  S
C834        C835   1.404       .  A
C834        H839   1.083       .  S
C835        C836   1.411   1_545  A
C836        F837   1.358       .  S
C841        C842   1.403   1_554  A
C841        C846   1.401       .  A
C841        H848   1.083       .  S
C842        C843   1.410       .  A
C843        C844   1.394       .  A
C843        F850   1.358       .  S
C844        C845   1.403       .  A
C844        H849   1.083       .  S
C845        C846   1.413   1_556  A
C846        F847   1.357       .  S
C851        C852   1.402   1_556  A
C851        C856   1.397   1_545  A
C851        H858   1.084       .  S
C852        C853   1.405   1_545  A
C853        C854   1.402       .  A
C853        F860   1.358       .  S
C854        C855   1.408       .  A
C854        H859   1.084       .  S
C855        C856   1.409   1_554  A
C856        F857   1.357       .  S
C861        C862   1.405       .  A
C861        C866   1.395       .  A
C861        H868   1.083       .  S
C862        C863   1.409   1_545  A
C863        C864   1.393       .  A
C863        F870   1.358       .  S
C864        C865   1.405   1_565  A
C864        H869   1.083       .  S
C865        C866   1.409       .  A
C866        F867   1.358       .  S
C871        C872   1.401       .  A
C871        C876   1.395       .  A
C871        H878   1.083       .  S
C872        C873   1.412   1_545  A
C873        C874   1.401       .  A
C873        F880   1.358       .  S
C874        C875   1.403   1_565  A
C874        H879   1.083       .  S
C875        C876   1.411       .  A
C876        F877   1.358       .  S
C881        C882   1.404       .  A
C881        C886   1.397       .  A
C881        H888   1.083       .  S
C882        C883   1.412       .  A
C883        C884   1.405       .  A
C883        F890   1.357       .  S
C884        C885   1.407       .  A
C884        H889   1.083       .  S
C885        C886   1.412       .  A
C886        F887   1.357       .  S
C891        C892   1.405       .  A
C891        C896   1.393       .  A
C891        H898   1.084       .  S
C892        C893   1.405       .  A
C893        C894   1.404       .  A
C893        F900   1.357       .  S
C894        C895   1.409       .  A
C894        H899   1.083       .  S
C895        C896   1.406       .  A
C896        F897   1.358       .  S
C901        C902   1.409       .  A
C901        C906   1.401       .  A
C901        H908   1.083       .  S
C902        C903   1.409       .  A
C903        C904   1.399       .  A
C903        F910   1.357       .  S
C904        C905   1.406       .  A
C904        H909   1.083       .  S
C905        C906   1.408       .  A
C906        F907   1.358       .  S
C911        C912   1.404       .  A
C911        C916   1.401       .  A
C911        H918   1.084       .  S
C912        C913   1.403   1_554  A
C913        C914   1.401       .  A
C913        F920   1.357       .  S
C914        C915   1.409   1_556  A
C914        H919   1.083       .  S
C915        C916   1.410       .  A
C916        F917   1.357       .  S
C921        C922   1.401   1_556  A
C921        C926   1.396       .  A
C921        H928   1.084       .  S
C922        C923   1.405       .  A
C923        C924   1.400       .  A
C923        F930   1.357       .  S
C924        C925   1.406       .  A
C924        H929   1.083       .  S
C925        C926   1.410   1_554  A
C926        F927   1.358       .  S
C931        C932   1.403       .  A
C931        C936   1.403       .  A
C931        H938   1.083       .  S
C932        C933   1.403       .  A
C933        C934   1.398       .  A
C933        F940   1.358       .  S
C934        C935   1.406       .  A
C934        H939   1.083       .  S
C935        C936   1.411       .  A
C936        F937   1.357       .  S
C941        C942   1.400       .  A
C941        C946   1.398       .  A
C941        H948   1.084       .  S
C942        C943   1.401       .  A
C943        C944   1.398       .  A
C943        F950   1.358       .  S
C944        C945   1.409       .  A
C944        H949   1.083       .  S
C945        C946   1.412       .  A
C946        F947   1.357       .  S
C951        C952   1.407       .  A
C951        C956   1.399       .  A
C951        H958   1.083       .  S
C952        C953   1.408   1_554  A
C953        C954   1.398       .  A
C953        F960   1.357       .  S
C954        C955   1.407   1_556  A
C954        H959   1.083       .  S
C955        C956   1.409       .  A
C956        F957   1.358       .  S
C961        C962   1.405       .  A
C961        C966   1.399       .  A
C961        H968   1.083       .  S
C962        C963   1.410       .  A
C963        C964   1.401       .  A
C963        F970   1.358       .  S
C964        C965   1.407       .  A
C964        H969   1.083       .  S
C965        C966   1.411       .  A
C966        F967   1.357       .  S
C971        C972   1.408       .  A
C971        C976   1.406       .  A
C971        H978   1.083       .  S
C972        C973   1.408       .  A
C973        C974   1.393       .  A
C973        F980   1.358       .  S
C974        C975   1.403       .  A
C974        H979   1.084       .  S
C975        C976   1.408       .  A
C976        F977   1.357   1_545  S
C981        C982   1.409       .  A
C981        C986   1.408       .  A
C981        H988   1.083       .  S
C982        C983   1.408       .  A
C983        C984   1.398       .  A
C983        F990   1.358       .  S
C984        C985   1.406       .  A
C984        H989   1.083       .  S
C985        C986   1.409       .  A
C986        F987   1.357       .  S
C991        C992   1.404       .  A
C991        C996   1.401       .  A
C991        H998   1.083       .  S
C992        C993   1.402       .  A
C993        C994   1.399       .  A
C993       F1000   1.357       .  S
C994        C995   1.406       .  A
C994        H999   1.083       .  S
C995        C996   1.409       .  A
C996        F997   1.358       .  S
C1001      C1002   1.404       .  A
C1001      C1006   1.400       .  A
C1001      H1008   1.083       .  S
C1002      C1003   1.410   1_556  A
C1003      C1004   1.403       .  A
C1003      F1010   1.357       .  S
C1004      C1005   1.404   1_554  A
C1004      H1009   1.083       .  S
C1005      C1006   1.408       .  A
C1006      F1007   1.358       .  S
C1011      C1012   1.403       .  A
C1011      C1016   1.391       .  A
C1011      H1018   1.083       .  S
C1012      C1013   1.411   1_556  A
C1013      C1014   1.404       .  A
C1013      F1020   1.357       .  S
C1014      C1015   1.405   1_554  A
C1014      H1019   1.083   1_545  S
C1015      C1016   1.412       .  A
C1016      F1017   1.358       .  S
C1021      C1022   1.410       .  A
C1021      C1026   1.404       .  A
C1021      H1028   1.083       .  S
C1022      C1023   1.410   1_556  A
C1023      C1024   1.405       .  A
C1023      F1030   1.357       .  S
C1024      C1025   1.405   1_554  A
C1024      H1029   1.083       .  S
C1025      C1026   1.405       .  A
C1026      F1027   1.358       .  S
C1031      C1032   1.404       .  A
C1031      C1036   1.392       .  A
C1031      H1038   1.083       .  S
C1032      C1033   1.410       .  A
C1033      C1034   1.402       .  A
C1033      F1040   1.357       .  S
C1034      C1035   1.407       .  A
C1034      H1039   1.083       .  S
C1035      C1036   1.409       .  A
C1036      F1037   1.358       .  S
C1041      C1042   1.408       .  A
C1041      C1046   1.401       .  A
C1041      H1048   1.083       .  S
C1042      C1043   1.407       .  A
C1043      C1044   1.394       .  A
C1043      F1050   1.357       .  S
C1044      C1045   1.405       .  A
C1044      H1049   1.083       .  S
C1045      C1046   1.409       .  A
C1046      F1047   1.358       .  S
C1051      C1052   1.403   1_554  A
C1051      C1056   1.401       .  A
C1051      H1058   1.083       .  S
C1052      C1053   1.405       .  A
C1053      C1054   1.400       .  A
C1053      F1060   1.357       .  S
C1054      C1055   1.404       .  A
C1054      H1059   1.083       .  S
C1055      C1056   1.408   1_556  A
C1056      F1057   1.358       .  S
