geometry optimzed in LAMMPS
_audit_creation_date              2020-11-30 
_audit_creation_method            'lammps2cif' 
_symmetry_space_group_name_H-M    'P1' 
_symmetry_Int_Tables_number       1 
_symmetry_cell_setting            triclinic 
loop_ 
_symmetry_equiv_pos_as_xyz 
  x,y,z 
_cell_length_a                    59.24654711 
_cell_length_b                    59.14388114385624 
_cell_length_c                    42.674995743205734 
_cell_angle_alpha                 88.68470908359079 
_cell_angle_beta                  90.37825585396837 
_cell_angle_gamma                 119.99072808642956 
loop_ 
_atom_site_label 
_atom_site_type_symbol 
_atom_site_fract_x 
_atom_site_fract_y 
_atom_site_fract_z 
_atom_site_charge 
N1          N  0.43223003  0.20779632  0.14829731    -0.03300
C2          C  0.43017412  0.22978226  0.14650271    -0.00700
C3          C  0.42568872  0.23610154  0.17584519    -0.23600
C4          C  0.42511259  0.21779335  0.19651830    -0.23800
C5          C  0.42889644  0.20043407  0.17927485    -0.00800
H6          H  0.42365441  0.25271898  0.18164146     0.13000
H7          H  0.42290560  0.21759814  0.22169265     0.13000
N8          N  0.25769297  0.84024476  0.38322416    -0.03300
C9          C  0.27738053  0.86563902  0.38213797    -0.00700
C10         C  0.28090811  0.87576186  0.35190220    -0.23600
C11         C  0.26282789  0.85639709  0.33364003    -0.23800
C12         C  0.24888623  0.83497019  0.35322404    -0.00800
H13         H  0.29564684  0.89506598  0.34389848     0.13000
H14         H  0.26052013  0.85751983  0.30857037     0.13000
N15         N  0.89273696  0.20683567  0.15101780    -0.03300
C16         C  0.87587462  0.18065711  0.14977187    -0.00700
C17         C  0.87571578  0.17199048  0.11988590    -0.23600
C18         C  0.89262921  0.19333990  0.10206355    -0.23800
C19         C  0.90267577  0.21442199  0.12156055    -0.00800
H20         H  0.86310383  0.15250909  0.11139737     0.13000
H21         H  0.89606842  0.19375879  0.07712375     0.13000
N22         N  0.70808849  0.84078975  0.41375113    -0.03300
C23         C  0.71503201  0.82194883  0.41532144    -0.00700
C24         C  0.71826137  0.81670895  0.44630203    -0.23600
C25         C  0.71362504  0.83281570  0.46433086    -0.23800
C26         C  0.70740776  0.84731327  0.44403357    -0.00800
H27         H  0.72264048  0.80199836  0.45498549     0.13000
H28         H  0.71400013  0.83340557  0.48966942     0.13000
N29         N  0.87039109  0.62767552  0.09257809    -0.03300
C30         C  0.89467261  0.63064183  0.09082822    -0.00700
C31         C  0.90070794  0.62826878  0.06032577    -0.23600
C32         C  0.87968508  0.62373048  0.04249759    -0.23800
C33         C  0.86130680  0.62322928  0.06268267    -0.00800
H34         H  0.91860613  0.62969456  0.05200851     0.13000
H35         H  0.87804243  0.62135218  0.01736209     0.13000
N36         N  0.26063748  0.41180114  0.34294462    -0.03300
C37         C  0.23827396  0.41285394  0.34068002    -0.00700
C38         C  0.23097345  0.41180525  0.30967279    -0.23600
C39         C  0.24950510  0.41043438  0.29213308    -0.23800
C40         C  0.26746663  0.41060495  0.31298740    -0.00800
H41         H  0.21392591  0.41203711  0.30082162     0.13000
H42         H  0.25019011  0.40997745  0.26682988     0.13000
O43         O  0.96633333  0.33495493  0.34838660    -0.78300
C44         C  0.98474470  0.34711300  0.45286853     0.82800
O45         O  0.95942862  0.40761702  0.37491890    -0.79400
O46         O  0.03849985  0.43382904  0.43777232    -0.80900
O47         O  0.05878330  0.38786405  0.35992052    -0.80700
O48         O  0.00141108  0.35714548  0.31811180    -0.79300
Zn49       Zn  0.97230314  0.35805247  0.38613817     1.55700
O50         O  0.06045585  0.39556827  0.41097387    -0.80700
Cd51       Cd  0.02586377  0.38954614  0.34483784     1.59700
Cd52       Cd  0.99863642  0.42000537  0.37500112     1.59600
O53         O  0.03920440  0.42360659  0.31717471    -0.80700
O54         O  0.00551829  0.39052829  0.38151993    -1.91200
Cd55       Cd  0.02707876  0.39721513  0.42003257     1.59900
O56         O  0.01605403  0.44101857  0.33459624    -0.80700
O57         O  0.00616459  0.36871611  0.45368938    -0.79300
C58         C  0.93971464  0.38531026  0.38094031     0.83200
C59         C  0.97873158  0.33743270  0.32290914     0.82900
O60         O  0.97088487  0.33987381  0.42804596    -0.78300
C61         C  0.06993831  0.39133022  0.38655723     0.83700
O62         O  0.94207746  0.36531799  0.38662512    -0.78400
C63         C  0.03285493  0.44130372  0.31588253     0.83800
C64         C  0.03170943  0.45072376  0.43111445     0.84200
O65         O  0.01539283  0.44701297  0.40954842    -0.80800
O66         O  0.16962876  0.71889816  0.08631074    -0.78300
C67         C  0.15566241  0.70383135  0.19098171     0.82800
O68         O  0.17957430  0.64606082  0.11325608    -0.79400
O69         O  0.10205012  0.61866450  0.18043503    -0.80900
O70         O  0.07833909  0.66274956  0.09970941    -0.80700
O71         O  0.13479595  0.69604263  0.05641541    -0.79300
Zn72       Zn  0.16562194  0.69465978  0.12319088     1.55700
O73         O  0.07797003  0.65630265  0.15135817    -0.80700
Cd74       Cd  0.11181231  0.66284737  0.08428940     1.59700
Cd75       Cd  0.14016502  0.63271432  0.11576211     1.59600
O76         O  0.09996084  0.63012536  0.05684279    -0.80700
O77         O  0.13272536  0.66182719  0.12084505    -1.91200
Cd78       Cd  0.11180987  0.65486767  0.16015169     1.59900
O79         O  0.12263464  0.61220160  0.07604475    -0.80700
O80         O  0.13357053  0.68295115  0.19254636    -0.79300
C81         C  0.19916034  0.66893485  0.11522698     0.83200
C82         C  0.15689218  0.71638581  0.06111637     0.82900
O83         O  0.16905731  0.71115521  0.16562155    -0.78300
C84         C  0.06772545  0.65975611  0.12660750     0.83700
O85         O  0.19629278  0.68862503  0.11942728    -0.78400
C86         C  0.10658801  0.61266364  0.05639009     0.83800
C87         C  0.10954369  0.60229082  0.17495995     0.84200
O88         O  0.12507103  0.60588787  0.15246467    -0.80800
O89         O  0.48198370  0.12445182  0.37067847    -0.78300
C90         C  0.47666088  0.12082831  0.47712877     0.82800
O91         O  0.56314394  0.13741280  0.40796314    -0.79400
O92         O  0.50729863  0.06384936  0.48306452    -0.80900
O93         O  0.44618134  0.03581262  0.39885493    -0.80700
O94         O  0.47210059  0.08745634  0.34703004    -0.79300
Zn95       Zn  0.49991952  0.12409900  0.41155693     1.55700
O96         O  0.44755260  0.04000134  0.45060591    -0.80700
Cd97       Cd  0.48052249  0.06733417  0.38167195     1.59700
Cd98       Cd  0.53647683  0.09814082  0.41603446     1.59600
O99         O  0.50206832  0.05207931  0.36166339    -0.80700
O100        O  0.49983389  0.09126500  0.41682905    -1.91200
Cd101      Cd  0.48305682  0.07406790  0.45798420     1.59900
O102        O  0.54123994  0.07578516  0.38303204    -0.80700
O103        O  0.47588139  0.09931361  0.48421904    -0.79300
C104        C  0.55957466  0.15692115  0.40536757     0.83200
C105        C  0.47326668  0.10961226  0.34702464     0.82900
O106        O  0.48437693  0.13157598  0.45001955    -0.78300
C107        C  0.43614589  0.02746335  0.42605937     0.83700
O108        O  0.53686069  0.15416348  0.40708946    -0.78400
C109        C  0.52575862  0.05778753  0.36493642     0.83800
C110        C  0.53135528  0.07073245  0.48003560     0.84200
O111        O  0.54510195  0.08551002  0.45734680    -0.80800
O112        O  0.65693202  0.92420318  0.12999365    -0.78300
C113        C  0.66489269  0.92865462  0.23559167     0.82800
O114        O  0.57771898  0.91306014  0.16866141    -0.79400
O115        O  0.63296622  0.98408487  0.23983350    -0.80900
O116        O  0.69538665  0.01524021  0.15386279    -0.80700
O117        O  0.67023088  0.96250154  0.10552372    -0.79300
Zn118      Zn  0.64034854  0.92549911  0.17083280     1.55700
O119        O  0.69309322  0.01103392  0.20599910    -0.80700
Cd120      Cd  0.66142743  0.98295137  0.13794801     1.59700
Cd121      Cd  0.60488318  0.95227555  0.17228498     1.59600
O122        O  0.63937272  0.99685628  0.11462907    -0.80700
O123        O  0.64145966  0.95888749  0.17405036    -1.91200
Cd124      Cd  0.65819817  0.97575845  0.21471740     1.59900
O125        O  0.59965364  0.97203516  0.13504070    -0.80700
O126        O  0.66607377  0.95030797  0.24180811    -0.79300
C127        C  0.58056520  0.89311246  0.16800966     0.83200
C128        C  0.66672163  0.93935056  0.10603011     0.82900
O129        O  0.65690122  0.91834452  0.20892388    -0.78300
C130        C  0.70469485  0.02377939  0.18095499     0.83700
O131        O  0.60310853  0.89539078  0.16902595    -0.78400
C132        C  0.61512193  0.98952988  0.11560617     0.83800
C133        C  0.60932684  0.97841813  0.23556102     0.84200
O134        O  0.59641476  0.96601895  0.21172514    -0.80800
C135        C  0.73451885  0.38421149  0.36596191     0.80400
N136        N  0.71260784  0.36049522  0.37015800    -0.77900
C137        C  0.71434977  0.33877675  0.37663895     0.82900
N138        N  0.73827736  0.34122579  0.38012344    -0.77800
C139        C  0.76029489  0.36466901  0.37598346     0.83000
N140        N  0.75820463  0.38614021  0.36959282    -0.79500
C141        C  0.40568905  0.67034453  0.12284801     0.80400
N142        N  0.38168672  0.66787905  0.11976722    -0.77900
C143        C  0.37854497  0.68901687  0.12225451     0.82900
N144        N  0.39945377  0.71259922  0.12872337    -0.77800
C145        C  0.42342747  0.71528550  0.13257197     0.83000
N146        N  0.42651048  0.69422956  0.12870519    -0.79500
O147        O  0.37917460  0.44007062  0.04435430    -0.78300
C148        C  0.39214728  0.43202054  0.14901578     0.82800
O149        O  0.45155902  0.51900469  0.07638608    -0.79400
O150        O  0.47705472  0.46417608  0.13534985    -0.80900
O151        O  0.43472481  0.40034138  0.05362676    -0.80700
O152        O  0.39968148  0.42529462  0.01476746    -0.79300
Zn153      Zn  0.40224786  0.45557086  0.08249264     1.55700
O154        O  0.44099722  0.40446264  0.10514267    -0.80700
Cd155      Cd  0.43303167  0.43401380  0.04059495     1.59700
Cd156      Cd  0.46346230  0.49170995  0.07223569     1.59600
O157        O  0.46497944  0.45664241  0.01150902    -0.80700
O158        O  0.43447452  0.45479677  0.07784021    -1.91200
Cd159      Cd  0.44112351  0.43869801  0.11590539     1.59900
O160        O  0.48218597  0.49687137  0.03015406    -0.80700
O161        O  0.41305378  0.43085288  0.14959084    -0.79300
C162        C  0.42907392  0.51552165  0.08279046     0.83200
C163        C  0.38101152  0.42986174  0.01910679     0.82900
O164        O  0.38476144  0.43891208  0.12417171    -0.78300
C165        C  0.43878093  0.39225671  0.07998359     0.83700
O166        O  0.40932852  0.49266286  0.08513604    -0.78400
C167        C  0.48155606  0.48103321  0.00999351     0.83800
C168        C  0.49426727  0.48767681  0.12843258     0.84200
O169        O  0.49138174  0.50037665  0.10582539    -0.80800
O170        O  0.76014111  0.61878802  0.29362872    -0.78300
C171        C  0.74445984  0.62037505  0.39828562     0.82800
O172        O  0.69048526  0.53747209  0.32328030    -0.79400
O173        O  0.65904420  0.58760650  0.38245144    -0.80900
O174        O  0.70498269  0.65576998  0.30342996    -0.80700
O175        O  0.73761856  0.63042847  0.26173209    -0.79300
Zn176      Zn  0.73702600  0.60120747  0.33154415     1.55700
O177        O  0.69719722  0.64863543  0.35482880    -0.80700
Cd178      Cd  0.70483962  0.62163904  0.28939120     1.59700
Cd179      Cd  0.67591605  0.56281509  0.32253794     1.59600
O180        O  0.67138783  0.59952680  0.26283525    -0.80700
O181        O  0.70386872  0.59998650  0.32682507    -1.91200
Cd182      Cd  0.69569591  0.61352500  0.36472727     1.59900
O183        O  0.65548502  0.55905189  0.28222919    -0.80700
O184        O  0.72223013  0.61880066  0.39934524    -0.79300
C185        C  0.71348617  0.54184804  0.32862032     0.83200
C186        C  0.75762096  0.62809183  0.26741074     0.82900
O187        O  0.75371281  0.61694671  0.37304048    -0.78300
C188        C  0.70078762  0.66256307  0.33008707     0.83700
O189        O  0.73223694  0.56490840  0.33288535    -0.78400
C190        C  0.65464963  0.57516289  0.26257153     0.83800
C191        C  0.64363776  0.56335104  0.37837993     0.84200
O192        O  0.64824612  0.55091780  0.35777282    -0.80800
C193        C  0.56462468  0.53146280  0.15264576    -0.11200
C194        C  0.56272602  0.52741781  0.18518502     0.15400
C195        C  0.53825752  0.51023002  0.19905461     0.02300
C196        C  0.51639026  0.49691243  0.17995184    -0.15500
C197        C  0.51825800  0.50084347  0.14727939    -0.10300
C198        C  0.54281661  0.51821844  0.13353635     0.09000
C199        C  0.58698069  0.53992943  0.20361180     0.10000
S200        S  0.53366784  0.50447750  0.24085162    -0.24700
H201        H  0.49764358  0.48387962  0.19075526     0.20300
S202        S  0.54804151  0.52331437  0.09175134    -0.30400
H203        H  0.58346204  0.54437768  0.14196925     0.10600
C204        C  0.59840370  0.52547146  0.21489665     0.03800
C205        C  0.62112911  0.53787020  0.23278272    -0.12700
C206        C  0.63291756  0.56458238  0.23965487    -0.08300
C207        C  0.62182208  0.57921156  0.22707940     0.07300
C208        C  0.59898803  0.56669844  0.20934335    -0.13400
S209        S  0.58404698  0.49119766  0.20644664    -0.30300
H210        H  0.62957568  0.52652792  0.24185326     0.11500
S211        S  0.63466366  0.61333063  0.23435369    -0.27400
H212        H  0.59026266  0.57781913  0.20029556     0.08700
H213        H  0.53061804  0.49718367  0.08423607     0.27200
H214        H  0.60194070  0.48673975  0.22341462     0.22000
H215        H  0.65863873  0.62072179  0.21965234     0.27300
H216        H  0.55440599  0.52883874  0.24963311     0.16100
C217        C  0.59257933  0.54435697  0.44280010    -0.11200
C218        C  0.57097159  0.52318843  0.42927736     0.15400
C219        C  0.57345043  0.51483979  0.39946365     0.02300
C220        C  0.59753983  0.52778374  0.38393824    -0.15500
C221        C  0.61928559  0.54927200  0.39722994    -0.10300
C222        C  0.61670130  0.55722678  0.42743432     0.09000
C223        C  0.54642422  0.51001676  0.44746776     0.10000
S224        S  0.54667160  0.48802898  0.37988573    -0.24700
H225        H  0.59906094  0.52141695  0.36083129     0.20300
S226        S  0.64350444  0.58266687  0.44849665    -0.30400
H227        H  0.59123104  0.55277968  0.96503261     0.10600
C228        C  0.53696112  0.48827878  0.95982766     0.03800
C229        C  0.51465192  0.47738193  0.97896251    -0.12700
C230        C  0.50172609  0.49126538  0.98520315    -0.08300
C231        C  0.51058718  0.51600497  0.97058408     0.07300
C232        C  0.53160840  0.52238740  0.44978704    -0.13400
S233        S  0.55454373  0.47096528  0.95457837    -0.30300
H234        H  0.50809582  0.45860630  0.99050659     0.11500
S235        S  0.49429062  0.53461415  0.97499608    -0.27400
H236        H  0.53761791  0.54055434  0.43693422     0.08700
H237        H  0.66142070  0.57499814  0.43941231     0.27200
H238        H  0.53675604  0.44789957  0.97078065     0.22000
H239        H  0.46910713  0.51275756  0.97796104     0.27300
H240        H  0.52666015  0.49057273  0.39382950     0.16100
C241        C  0.43284811  0.62377238  0.12387217    -0.11200
C242        C  0.41670187  0.60538349  0.10200768     0.15400
C243        C  0.39641213  0.60787765  0.08794506     0.02300
C244        C  0.39297337  0.62885310  0.09569563    -0.15500
C245        C  0.40933660  0.64761357  0.11729927    -0.10300
C246        C  0.42914754  0.64449726  0.13208342     0.09000
C247        C  0.42012986  0.58264782  0.09650047     0.10000
S248        S  0.37398992  0.58478869  0.06033892    -0.24700
H249        H  0.37760153  0.63074486  0.08424230     0.20300
S250        S  0.44919261  0.66502430  0.16311760    -0.30400
H251        H  0.44792945  0.62142926  0.13542360     0.10600
C252        C  0.43866957  0.58390003  0.07497149     0.03800
C253        C  0.44129864  0.56179512  0.07089399    -0.12700
C254        C  0.42589252  0.53850070  0.08819398    -0.08300
C255        C  0.40792425  0.53778593  0.11052840     0.07300
C256        C  0.40493826  0.55960971  0.11394935    -0.13400
S257        S  0.45859813  0.61352562  0.05240583    -0.30300
H258        H  0.45521855  0.56256476  0.05397724     0.11500
S259        S  0.38940343  0.51035856  0.13688672    -0.27400
H260        H  0.39110134  0.55888913  0.13100580     0.08700
H261        H  0.42895178  0.66708209  0.17735732     0.27200
H262        H  0.47252406  0.60421596  0.03559399     0.22000
H263        H  0.41000914  0.50546869  0.14272025     0.27300
H264        H  0.39084365  0.57667436  0.04866372     0.16100
C265        C  0.74959776  0.45210051  0.33733892    -0.11200
C266        C  0.72841276  0.45329039  0.34978287     0.15400
C267        C  0.70909770  0.43162165  0.36695432     0.02300
C268        C  0.71125462  0.40922567  0.37111461    -0.15500
C269        C  0.73257045  0.40793813  0.35893421    -0.10300
C270        C  0.75177324  0.42969677  0.34135247     0.09000
C271        C  0.72611702  0.47672498  0.34296227     0.10000
S272        S  0.68135685  0.43145487  0.38438763    -0.24700
H273        H  0.69641633  0.39289411  0.38470178     0.20300
S274        S  0.77869425  0.42979767  0.32175710    -0.30400
H275        H  0.76419728  0.46853724  0.32363519     0.10600
C276        C  0.74168789  0.50038354  0.35833571     0.03800
C277        C  0.73770848  0.52157224  0.35241753    -0.12700
C278        C  0.71856334  0.51969838  0.33122848    -0.08300
C279        C  0.70403789  0.49631378  0.31457222     0.07300
C280        C  0.70768931  0.47504713  0.32099090    -0.13400
S281        S  0.76571963  0.50316592  0.38661953    -0.30300
H282        H  0.74898810  0.53940745  0.36516789     0.11500
S283        S  0.68128114  0.49256329  0.28409954    -0.27400
H284        H  0.69616425  0.45702143  0.30861511     0.08700
H285        H  0.76388398  0.40393168  0.31162012     0.27200
H286        H  0.77541982  0.52960113  0.39341180     0.22000
H287        H  0.69625546  0.51824876  0.27208121     0.27300
H288        H  0.69393077  0.45833929  0.39020174     0.16100
C289        C  0.53389406  0.81946014  0.17106646    -0.11200
C290        C  0.51328993  0.81741778  0.15264928     0.15400
C291        C  0.51440042  0.84040594  0.14065678     0.02300
C292        C  0.53608878  0.86474783  0.14702968    -0.15500
C293        C  0.55713257  0.86686032  0.16476669    -0.10300
C294        C  0.55559247  0.84378372  0.17746816     0.09000
C295        C  0.49048103  0.79113181  0.14753111     0.10000
S296        S  0.48912476  0.84000250  0.11644855    -0.24700
H297        H  0.53689569  0.88216770  0.13708999     0.20300
S298        S  0.57989309  0.84392135  0.20320311    -0.30400
H299        H  0.53282866  0.80191202  0.18098866     0.10600
C300        C  0.49246188  0.77254506  0.12943899     0.03800
C301        C  0.47042634  0.74782848  0.12548703    -0.12700
C302        C  0.44631176  0.74121126  0.13917439    -0.08300
C303        C  0.44463011  0.75980200  0.15791906     0.07300
C304        C  0.46657619  0.78452395  0.16155898    -0.13400
S305        S  0.52277863  0.78066052  0.11028224    -0.30300
H306        H  0.47184468  0.73378541  0.11101957     0.11500
S307        S  0.41558889  0.75297109  0.17912080    -0.27400
H308        H  0.46516083  0.79863942  0.17594736     0.08700
H309        H  0.58466795  0.86650610  0.21900813     0.27200
H310        H  0.51418904  0.75619890  0.09685485     0.22000
H311        H  0.40882265  0.72720911  0.18764481     0.27300
H312        H  0.48160344  0.81599669  0.10240885     0.16100
C313        C  0.64533210  0.27994901  0.37131901    -0.11200
C314        C  0.64734349  0.26189050  0.39131193     0.15400
C315        C  0.67117419  0.26925228  0.40643746     0.02300
C316        C  0.69245274  0.29428354  0.40107257    -0.15500
C317        C  0.69069578  0.31256235  0.38098405    -0.10300
C318        C  0.66670986  0.30497768  0.36565197     0.09000
C319        C  0.62467792  0.23514383  0.39478702     0.10000
S320        S  0.67573710  0.24758945  0.43278661    -0.24700
H321        H  0.71053510  0.29957882  0.41310197     0.20300
S322        S  0.66237383  0.32535659  0.33704787    -0.30400
H323        H  0.62714364  0.27417896  0.35927584     0.10600
C324        C  0.60294880  0.22995922  0.41327822     0.03800
C325        C  0.58194704  0.20431653  0.41604712    -0.12700
C326        C  0.58218808  0.18362096  0.40075223    -0.08300
C327        C  0.60393091  0.18905442  0.38179164     0.07300
C328        C  0.62498910  0.21462992  0.37934004    -0.13400
S329        S  0.60240173  0.25588388  0.43420494    -0.30300
H330        H  0.56541153  0.20026896  0.43064722     0.11500
S331        S  0.60552755  0.16463721  0.35891743    -0.27400
H332        H  0.64160664  0.21869563  0.36483910     0.08700
H333        H  0.68634696  0.33356563  0.32187110     0.27200
H334        H  0.57780288  0.24046648  0.44836935     0.22000
H335        H  0.57907493  0.15182354  0.35041203     0.27300
H336        H  0.64994960  0.23370884  0.44400891     0.16100
C337        C  0.56913174  0.00034314  0.06300917    -0.11200
C338        C  0.58192859  0.02766835  0.06083733     0.15400
C339        C  0.60647683  0.04236855  0.07528103     0.02300
C340        C  0.61754830  0.02943508  0.09158521    -0.15500
C341        C  0.60444463  0.00206313  0.09439565    -0.10300
C342        C  0.58016714  0.98742668  0.07927820     0.09000
C343        C  0.56994662  0.03998599  0.04138888     0.10000
S344        S  0.62455853  0.07759014  0.07395740    -0.24700
H345        H  0.63608561  0.04087399  0.10319315     0.20300
S346        S  0.56277032  0.95222505  0.07881062    -0.30400
H347        H  0.55061993  0.98896663  0.05131731     0.10600
C348        C  0.57593750  0.04581671  0.50809453     0.03800
C349        C  0.56449259  0.05751211  0.49014680    -0.12700
C350        C  0.54376525  0.06016210  0.50187006    -0.08300
C351        C  0.53490956  0.05124549  0.53291407     0.07300
C352        C  0.54965354  0.04284318  0.05384204    -0.13400
S353        S  0.60153225  0.04161571  0.49139423    -0.30300
H354        H  0.57139572  0.06406842  0.46643308     0.11500
S355        S  0.51308835  0.05846469  0.05491088    -0.27400
H356        H  0.54358351  0.03684449  0.07795874     0.08700
H357        H  0.58518324  0.94973752  0.07887611     0.27200
H358        H  0.60254499  0.05324885  0.46192778     0.22000
H359        H  0.51888745  0.08054460  0.53897774     0.27300
H360        H  0.60296101  0.08124951  0.07100226     0.16100
C361        C  0.56438369  0.02472807  0.34350110    -0.11200
C362        C  0.55873882  0.02018295  0.31155765     0.15400
C363        C  0.54045232  0.02610078  0.29780798     0.02300
C364        C  0.52904858  0.03727463  0.31598910    -0.15500
C365        C  0.53576593  0.04309394  0.34759746    -0.10300
C366        C  0.55296215  0.03577026  0.36166480     0.09000
C367        C  0.57215966  0.00911337  0.29346686     0.10000
S368        S  0.53142560  0.02061648  0.25706965    -0.24700
H369        H  0.51564563  0.04244496  0.30501994     0.20300
S370        S  0.56044109  0.03902577  0.40291763    -0.30400
H371        H  0.57776201  0.01948855  0.35441660     0.10600
C372        C  0.59915109  0.02379985  0.28707935     0.03800
C373        C  0.61109899  0.01279484  0.26955334    -0.12700
C374        C  0.59660353  0.98742690  0.25798676    -0.08300
C375        C  0.56969411  0.97244218  0.26544111     0.07300
C376        C  0.55780223  0.98348535  0.28283390    -0.13400
S377        S  0.61812889  0.05711607  0.29973935    -0.30300
H378        H  0.63160036  0.02440278  0.26366722     0.11500
S379        S  0.54953145  0.93895931  0.25409667    -0.27400
H380        H  0.53717910  0.97198300  0.28824517     0.08700
H381        H  0.53563035  0.03378676  0.41276225     0.27200
H382        H  0.64217255  0.06208676  0.28736880     0.22000
H383        H  0.56936715  0.93253814  0.25668827     0.27300
H384        H  0.55557002  0.02489793  0.24598348     0.16100
C385        C  0.25660996  0.65829933  0.10061917    -0.11200
C386        C  0.27634648  0.67882013  0.11740945     0.15400
C387        C  0.27104996  0.69697142  0.13169771     0.02300
C388        C  0.24604562  0.69381110  0.12955849    -0.15500
C389        C  0.22589666  0.67272284  0.11366932    -0.10300
C390        C  0.23167148  0.65523383  0.09819978     0.09000
C391        C  0.30241494  0.68114311  0.11866816     0.10000
S392        S  0.29511706  0.72421152  0.15357518    -0.24700
H393        H  0.24211626  0.70751450  0.14138019     0.20300
S394        S  0.20868044  0.62934809  0.07381735    -0.30400
H395        H  0.26083467  0.64476282  0.08886829     0.10600
C396        C  0.30663652  0.66292102  0.13577374     0.03800
C397        C  0.33151436  0.66551896  0.13581738    -0.12700
C398        C  0.35236916  0.68618151  0.11943171    -0.08300
C399        C  0.34794885  0.70425152  0.10203849     0.07300
C400        C  0.32312259  0.70161332  0.10200159    -0.13400
S401        S  0.28060910  0.63703131  0.15863066    -0.30300
H402        H  0.33494513  0.65182816  0.14935777     0.11500
S403        S  0.37281733  0.73048062  0.07847093    -0.27400
H404        H  0.31979396  0.71542867  0.08853455     0.08700
H405        H  0.19844814  0.64422112  0.06025726     0.27200
H406        H  0.29519999  0.62614910  0.17108365     0.22000
H407        H  0.38505555  0.71650848  0.06930408     0.27300
H408        H  0.30888729  0.71197243  0.16447015     0.16100
C409        C  0.88118286  0.39352027  0.36279757    -0.11200
C410        C  0.86364196  0.37771129  0.38635614     0.15400
C411        C  0.87113883  0.36433148  0.40803422     0.02300
C412        C  0.89577714  0.36667184  0.40531705    -0.15500
C413        C  0.91350262  0.38269404  0.38188886    -0.10300
C414        C  0.90603939  0.39629650  0.36036781     0.09000
C415        C  0.83703742  0.37410006  0.38592114     0.10000
S416        S  0.85029454  0.34427150  0.43979944    -0.24700
H417        H  0.90139710  0.35638206  0.42211887     0.20300
S418        S  0.92725734  0.41590878  0.32847077    -0.30400
H419        H  0.87506223  0.40328743  0.34588679     0.10600
C420        C  0.83247936  0.39469513  0.39257186     0.03800
C421        C  0.80728305  0.39098524  0.38927136    -0.12700
C422        C  0.78645162  0.36715432  0.37906212    -0.08300
C423        C  0.79131302  0.34660428  0.37218137     0.07300
C424        C  0.81634477  0.35020035  0.37621451    -0.13400
S425        S  0.85868616  0.42557044  0.40577040    -0.30300
H426        H  0.80379445  0.40674876  0.39483163     0.11500
S427        S  0.76722474  0.31602653  0.35598147    -0.27400
H428        H  0.82001266  0.33456081  0.37045367     0.08700
H429        H  0.91119252  0.42519583  0.31633787     0.27200
H430        H  0.84426613  0.43853937  0.40704316     0.22000
H431        H  0.75776641  0.32763146  0.33440994     0.27300
H432        H  0.83688612  0.35808580  0.44329766     0.16100
C433        C  0.05410361  0.52058446  0.45502779    -0.11200
C434        C  0.06345230  0.52068169  0.48522532     0.15400
C435        C  0.06101478  0.49885534  0.99371449     0.02300
C436        C  0.05256905  0.47560529  0.47923333    -0.15500
C437        C  0.04306044  0.47531602  0.44887408    -0.10300
C438        C  0.04449263  0.49850717  0.43648750     0.09000
C439        C  0.07482698  0.54673972  0.99629440     0.10000
S440        S  0.07096887  0.49757582  0.03348103    -0.24700
H441        H  0.05181753  0.45818905  0.48908572     0.20300
S442        S  0.03616052  0.50212433  0.39666893    -0.30400
H443        H  0.05520966  0.53823686  0.44539322     0.10600
C444        C  0.10189861  0.56166220  0.00109416     0.03800
C445        C  0.11187476  0.58386649  0.01962512    -0.12700
C446        C  0.09540085  0.59183522  0.03292192    -0.08300
C447        C  0.06842614  0.57769724  0.02631596     0.07300
C448        C  0.05843027  0.55523174  0.00829969    -0.13400
S449        S  0.12365875  0.55218198  0.98398282    -0.30300
H450        H  0.13257160  0.59480852  0.02437310     0.11500
S451        S  0.04554147  0.58583914  0.04267046    -0.27400
H452        H  0.03761667  0.54384160  0.00435218     0.08700
H453        H  0.04886589  0.48981370  0.38355254     0.27200
H454        H  0.14697532  0.57317974  0.99509573     0.22000
H455        H  0.05738742  0.61069423  0.02796970     0.27300
H456        H  0.06630298  0.51686902  0.04524917     0.16100
C457        C  0.08324309  0.49850963  0.26568330    -0.11200
C458        C  0.06838392  0.50953386  0.25487548     0.15400
C459        C  0.04155323  0.49689067  0.26223649     0.02300
C460        C  0.03050605  0.47436316  0.28136038    -0.15500
C461        C  0.04532182  0.46338278  0.29274083    -0.10300
C462        C  0.07202627  0.47555720  0.28427696     0.09000
C463        C  0.08112632  0.53401761  0.23567992     0.10000
S464        S  0.02037160  0.50866354  0.24830016    -0.24700
H465        H  0.01002319  0.46530522  0.28746282     0.20300
S466        S  0.09324756  0.46403751  0.29843537    -0.30400
H467        H  0.10382153  0.50806536  0.25991681     0.10600
C468        C  0.08525049  0.55790278  0.24732522     0.03800
C469        C  0.09451481  0.57982931  0.22705669    -0.12700
C470        C  0.09999608  0.57848833  0.19534179    -0.08300
C471        C  0.09640849  0.55450898  0.18409139     0.07300
C472        C  0.08742675  0.53280263  0.20445266    -0.13400
S473        S  0.07889515  0.56046454  0.28805594    -0.30300
H474        H  0.09760333  0.59814569  0.23598596     0.11500
S475        S  0.10110132  0.54953136  0.14366089    -0.27400
H476        H  0.08411243  0.51439209  0.19548333     0.08700
H477        H  0.07933402  0.44006967  0.28317706     0.27200
H478        H  0.08678864  0.58720086  0.28695500     0.22000
H479        H  0.08865143  0.56278622  0.13153069     0.27300
H480        H  0.03347411  0.51941537  0.21974852     0.16100
C481        C  0.19195639  0.42896817  0.37831111    -0.11200
C482        C  0.17348533  0.40417579  0.39000798     0.15400
C483        C  0.18065516  0.38475401  0.39338616     0.02300
C484        C  0.20470877  0.38949968  0.38141796    -0.15500
C485        C  0.22178405  0.41330630  0.36621250    -0.10300
C486        C  0.21599182  0.43376133  0.36662279     0.09000
C487        C  0.14597494  0.39816313  0.39274751     0.10000
S488        S  0.15908380  0.35292595  0.41039656    -0.24700
H489        H  0.20885601  0.37362831  0.38115177     0.20300
S490        S  0.23702576  0.46541377  0.34871307    -0.30400
H491        H  0.18679232  0.44410134  0.37586398     0.10600
C492        C  0.13844477  0.41123269  0.41377688     0.03800
C493        C  0.11324630  0.40786668  0.41192917    -0.12700
C494        C  0.09520639  0.39164707  0.38942982    -0.08300
C495        C  0.10239206  0.37732258  0.36971580     0.07300
C496        C  0.12766938  0.38103669  0.37128220    -0.13400
S497        S  0.16100256  0.43233040  0.44283294    -0.30300
H498        H  0.10788944  0.41865053  0.42746184     0.11500
S499        S  0.08022639  0.35365336  0.34251913    -0.27400
H500        H  0.13329849  0.37079470  0.35517618     0.08700
H501        H  0.25963819  0.46336410  0.34841449     0.27200
H502        H  0.14404630  0.43932248  0.45696363     0.22000
H503        H  0.05838793  0.34402239  0.36249468     0.27300
H504        H  0.14471352  0.36080652  0.42875541     0.16100
C505        C  0.29372300  0.39433307  0.40672356    -0.11200
C506        C  0.30960274  0.41868886  0.42023821     0.15400
C507        C  0.30803191  0.44056058  0.40897007     0.02300
C508        C  0.29094010  0.43755637  0.38439231    -0.15500
C509        C  0.27532473  0.41326766  0.37064655    -0.10300
C510        C  0.27662186  0.39137992  0.38221664     0.09000
C511        C  0.32779137  0.42059599  0.44561057     0.10000
S512        S  0.32788574  0.47301744  0.42385914    -0.24700
H513        H  0.29034098  0.45446528  0.37525776     0.20300
S514        S  0.25721859  0.35920221  0.36656648    -0.30400
H515        H  0.29478395  0.37748852  0.41525589     0.10600
C516        C  0.31962521  0.41505141  0.47717491     0.03800
C517        C  0.33630702  0.41933283  0.00226296    -0.12700
C518        C  0.36132694  0.42412577  0.99389610    -0.08300
C519        C  0.36716057  0.42460764  0.96156670     0.07300
C520        C  0.35370472  0.42844052  0.43804790    -0.13400
S521        S  0.28639554  0.40508304  0.48756878    -0.30300
H522        H  0.33156041  0.41891426  0.02679752     0.11500
S523        S  0.39888697  0.43264120  0.94708078    -0.27400
H524        H  0.36007702  0.43293130  0.41381321     0.08700
H525        H  0.23856052  0.36348130  0.35137105     0.27200
H526        H  0.28954759  0.40897864  0.02378540     0.22000
H527        H  0.41236010  0.45464322  0.96597391     0.27300
H528        H  0.33503707  0.46388938  0.94105636     0.16100
C529        C  0.33195698  0.43743432  0.27266230    -0.11200
C530        C  0.32928312  0.41450174  0.26009343     0.15400
C531        C  0.30928230  0.39005909  0.27149475     0.02300
C532        C  0.29042811  0.38910299  0.29192240    -0.15500
C533        C  0.29173625  0.41207264  0.30217660    -0.10300
C534        C  0.31334107  0.43642816  0.29367872     0.09000
C535        C  0.34494332  0.41690588  0.23194381     0.10000
S536        S  0.30563036  0.35954577  0.25877907    -0.24700
H537        H  0.27366596  0.37035679  0.29807371     0.20300
S538        S  0.31553357  0.46630169  0.30668535    -0.30400
H539        H  0.34747244  0.45615007  0.26408227     0.10600
C540        C  0.33361963  0.41158378  0.20186785     0.03800
C541        C  0.34935082  0.41602786  0.17541104    -0.12700
C542        C  0.37634326  0.42610836  0.17814201    -0.08300
C543        C  0.38762721  0.43170016  0.20846960     0.07300
C544        C  0.37178080  0.42673856  0.23489958    -0.13400
S545        S  0.29934053  0.40051487  0.19691730    -0.30300
H546        H  0.34062713  0.41204469  0.15236509     0.11500
S547        S  0.42222749  0.44706612  0.21514559    -0.27400
H548        H  0.38056650  0.43142763  0.25792873     0.08700
H549        H  0.34042153  0.48332239  0.29407620     0.27200
H550        H  0.29853663  0.39728973  0.16430073     0.22000
H551        H  0.42882165  0.46601247  0.19103779     0.27300
H552        H  0.33199685  0.36947611  0.25096304     0.16100
C553        C  0.00785571  0.66663669  0.10910736    -0.11200
C554        C  0.99170390  0.65314979  0.13489253     0.15400
C555        C  0.00137366  0.64339726  0.15873168     0.02300
C556        C  0.02627418  0.64634729  0.15565345    -0.15500
C557        C  0.04233394  0.65929712  0.12944732    -0.10300
C558        C  0.03305905  0.67031820  0.10642834     0.09000
C559        C  0.96408554  0.64713249  0.13408773     0.10000
S560        S  0.98279269  0.62674353  0.19348731    -0.24700
H561        H  0.03292422  0.63796921  0.17379131     0.20300
S562        S  0.05231366  0.68973480  0.07336306    -0.30400
H563        H  0.00061811  0.67416460  0.09062023     0.10600
C564        C  0.95746932  0.66697143  0.13163923     0.03800
C565        C  0.93210668  0.66057815  0.12258567    -0.12700
C566        C  0.91319817  0.63469203  0.11634271    -0.08300
C567        C  0.91897389  0.61464789  0.12316351     0.07300
C568        C  0.94432746  0.62102400  0.13146827    -0.13400
S569        S  0.98174919  0.70060060  0.13797097    -0.30300
H570        H  0.92794471  0.67605044  0.11692653     0.11500
S571        S  0.89565969  0.58075624  0.11700645    -0.27400
H572        H  0.94908388  0.60559546  0.13370205     0.08700
H573        H  0.07523353  0.70377400  0.09089731     0.27200
H574        H  0.96466868  0.71063528  0.13614472     0.22000
H575        H  0.87371972  0.58368325  0.12043799     0.27300
H576        H  0.96814651  0.63949415  0.19402105     0.16100
C577        C  0.81937250  0.64059938  0.22417454    -0.11200
C578        C  0.81076637  0.63637058  0.19302004     0.15400
C579        C  0.78566395  0.63241356  0.18622454     0.02300
C580        C  0.76930711  0.63117282  0.21068693    -0.15500
C581        C  0.77743599  0.63430317  0.24215022    -0.10300
C582        C  0.80333710  0.64016784  0.24855268     0.09000
C583        C  0.82749836  0.63433833  0.16848045     0.10000
S584        S  0.77313503  0.62821662  0.14683466    -0.24700
H585        H  0.74970146  0.62684375  0.20508094     0.20300
S586        S  0.81737766  0.64765333  0.28715712    -0.30400
H587        H  0.83871172  0.64401968  0.22960751     0.10600
C588        C  0.85150903  0.65594410  0.15871993     0.03800
C589        C  0.86590500  0.65309501  0.13451396    -0.12700
C590        C  0.85682730  0.62909941  0.11982760    -0.08300
C591        C  0.83322877  0.60734774  0.13026363     0.07300
C592        C  0.81888968  0.61015876  0.15443768    -0.13400
S593        S  0.86310544  0.68749012  0.17579305    -0.30300
H594        H  0.88375723  0.66979564  0.12605246     0.11500
S595        S  0.82146857  0.57585141  0.11308150    -0.27400
H596        H  0.80070362  0.59352749  0.16232995     0.08700
H597        H  0.80456161  0.66119118  0.29587006     0.27200
H598        H  0.88703963  0.70046476  0.15958210     0.22000
H599        H  0.79824406  0.56242948  0.13061981     0.27300
H600        H  0.79739552  0.64366431  0.13192493     0.16100
C601        C  0.80233929  0.60090254  0.01206074    -0.11200
C602        C  0.79973043  0.62315249  0.01165256     0.15400
C603        C  0.81343346  0.64279925  0.03373917     0.02300
C604        C  0.83178792  0.64117830  0.05320788    -0.15500
C605        C  0.83639878  0.62017795  0.05107510    -0.10300
C606        C  0.82053336  0.59920019  0.03146897     0.09000
C607        C  0.79029572  0.63375223  0.48131476     0.10000
S608        S  0.80966721  0.67109068  0.03652516    -0.24700
H609        H  0.84387137  0.65729617  0.06826675     0.20300
S610        S  0.82468174  0.57097099  0.02940433    -0.30400
H611        H  0.80478544  0.59899854  0.49137620     0.10600
C612        C  0.80156941  0.64863686  0.45364379     0.03800
C613        C  0.78605522  0.64433180  0.42701139    -0.12700
C614        C  0.75955271  0.62529994  0.42743413    -0.08300
C615        C  0.74830087  0.61050622  0.45530752     0.07300
C616        C  0.76371930  0.61509641  0.48197310    -0.13400
S617        S  0.83605088  0.67199427  0.45167305    -0.30300
H618        H  0.79464236  0.65546984  0.40558192     0.11500
S619        S  0.71508346  0.58397746  0.45767195    -0.27400
H620        H  0.74809783  0.59886144  0.00499989     0.08700
H621        H  0.80489745  0.55719771  0.00748352     0.27200
H622        H  0.83665733  0.67986572  0.42018713     0.22000
H623        H  0.71458360  0.57486082  0.42737074     0.27300
H624        H  0.78450145  0.65952814  0.02371825     0.16100
C625        C  0.68573538  0.71401732  0.35971985    -0.11200
C626        C  0.70458705  0.73666099  0.34394748     0.15400
C627        C  0.72051589  0.73431548  0.32118653     0.02300
C628        C  0.71821341  0.70982813  0.31601893    -0.15500
C629        C  0.70016970  0.68735201  0.33296665    -0.10300
C630        C  0.68306371  0.68953348  0.35419768     0.09000
C631        C  0.70945751  0.76241423  0.35530896     0.10000
S632        S  0.74455818  0.76196265  0.29860302    -0.24700
H633        H  0.73124298  0.70851535  0.29940799     0.20300
S634        S  0.65725016  0.66185560  0.37500772    -0.30400
H635        H  0.67337778  0.71553190  0.37718224     0.10600
C636        C  0.69043816  0.77015580  0.35370345     0.03800
C637        C  0.69388114  0.79180441  0.37080424    -0.12700
C638        C  0.71602232  0.80587153  0.38951004    -0.08300
C639        C  0.73613864  0.79947708  0.38845418     0.07300
C640        C  0.73251846  0.77787665  0.37167433    -0.13400
S641        S  0.66133730  0.75181711  0.33087720    -0.30300
H642        H  0.67838356  0.79643643  0.37155764     0.11500
S643        S  0.76639873  0.81686602  0.40961624    -0.27400
H644        H  0.74733640  0.77224285  0.37275330     0.08700
H645        H  0.65129213  0.64439382  0.35033527     0.27200
H646        H  0.65125323  0.76863425  0.33492533     0.22000
H647        H  0.76568099  0.83993773  0.41369581     0.27300
H648        H  0.73197311  0.77673051  0.30016085     0.16100
C649        C  0.71278049  0.90554887  0.48477210    -0.11200
C650        C  0.68835145  0.89413184  0.49960623     0.15400
C651        C  0.66868059  0.86907384  0.49052177     0.02300
C652        C  0.67460290  0.85509016  0.46919378    -0.15500
C653        C  0.69957818  0.86577847  0.45591834    -0.10300
C654        C  0.71847146  0.89168623  0.46295007     0.09000
C655        C  0.68361038  0.90633336  0.02613917     0.10000
S656        S  0.63608634  0.85179237  0.00530750    -0.24700
H657        H  0.66010693  0.83503416  0.46450514     0.20300
S658        S  0.75088405  0.90695587  0.44691841    -0.30400
H659        H  0.72791314  0.92483470  0.49141406     0.10600
C660        C  0.68509995  0.89809977  0.05696873     0.03800
C661        C  0.68010655  0.90961389  0.08245444    -0.12700
C662        C  0.67339448  0.92917396  0.07796728    -0.08300
C663        C  0.67191591  0.93730500  0.04681069     0.07300
C664        C  0.67758226  0.92623405  0.02144334    -0.13400
S665        S  0.69347741  0.87292427  0.06384959    -0.30300
H666        H  0.68132451  0.90322878  0.10606713     0.11500
S667        S  0.66099297  0.96013889  0.03746925    -0.27400
H668        H  0.67992223  0.93481969  0.49794595     0.08700
H669        H  0.74202471  0.89799986  0.41665559     0.27200
H670        H  0.69079298  0.87152433  0.09667263     0.22000
H671        H  0.63970219  0.94853277  0.05840765     0.27300
H672        H  0.63481643  0.87425697  0.01217236     0.16100
C673        C  0.71380974  0.87622160  0.33670624    -0.11200
C674        C  0.68980484  0.87557064  0.33572090     0.15400
C675        C  0.67134878  0.86190704  0.35980826     0.02300
C676        C  0.67767349  0.85026735  0.38476031    -0.15500
C677        C  0.70197412  0.85156772  0.38634916    -0.10300
C678        C  0.72018838  0.86467197  0.36179029     0.09000
C679        C  0.68486633  0.88996527  0.30992229     0.10000
S680        S  0.63953354  0.85892974  0.36035196    -0.24700
H681        H  0.66347222  0.84002489  0.40319680     0.20300
S682        S  0.75241739  0.86879290  0.36187999    -0.30400
H683        H  0.72806666  0.88663977  0.31833322     0.10600
C684        C  0.68602306  0.91399960  0.31483488     0.03800
C685        C  0.67989720  0.92624338  0.29018510    -0.12700
C686        C  0.67235215  0.91499805  0.26036821    -0.08300
C687        C  0.67167446  0.89086524  0.25569460     0.07300
C688        C  0.67824710  0.87901383  0.28021560    -0.13400
S689        S  0.69551752  0.92917631  0.35256816    -0.30300
H690        H  0.68075059  0.94461878  0.29441710     0.11500
S691        S  0.66213332  0.87349744  0.21951033    -0.27400
H692        H  0.67739933  0.86054960  0.27637705     0.08700
H693        H  0.75554371  0.87079381  0.39449044     0.27200
H694        H  0.69299814  0.95107758  0.34499198     0.22000
H695        H  0.63689914  0.87007712  0.22088115     0.27300
H696        H  0.63682327  0.85990869  0.32769244     0.16100
C697        C  0.76103011  0.08943357  0.20874314    -0.11200
C698        C  0.77871068  0.09648597  0.18371942     0.15400
C699        C  0.77163391  0.07988104  0.15776590     0.02300
C700        C  0.74769747  0.05647707  0.15780289    -0.15500
C701        C  0.72987467  0.04912277  0.18284370    -0.10300
C702        C  0.73663989  0.06632736  0.20836981     0.09000
C703        C  0.80469763  0.12074634  0.18509301     0.10000
S704        S  0.79232559  0.08744662  0.12372008    -0.24700
H705        H  0.74296911  0.04386630  0.13787856     0.20300
S706        S  0.71471373  0.06075711  0.24044909    -0.30400
H707        H  0.76613924  0.10222370  0.22854378     0.10600
C708        C  0.80777709  0.14573645  0.17915708     0.03800
C709        C  0.83282633  0.16712320  0.17285792    -0.12700
C710        C  0.85479736  0.16395252  0.17230145    -0.08300
C711        C  0.85188558  0.13967740  0.18216997     0.07300
C712        C  0.82699627  0.11835508  0.18821150    -0.13400
S713        S  0.77962442  0.14978285  0.17563707    -0.30300
H714        H  0.83482229  0.18549718  0.16463553     0.11500
S715        S  0.87914660  0.13420879  0.18385067    -0.27400
H716        H  0.82485299  0.09934481  0.19336302     0.08700
H717        H  0.69263380  0.05242931  0.22131505     0.27200
H718        H  0.79346167  0.17721628  0.17304715     0.22000
H719        H  0.89724317  0.16015252  0.19114025     0.27300
H720        H  0.80317163  0.11468083  0.12455162     0.16100
C721        C  0.93725882  0.24591823  0.21622884    -0.11200
C722        C  0.92460788  0.25873257  0.22770858     0.10600
C723        C  0.90040787  0.25312910  0.21447552     0.02300
C724        C  0.88948746  0.23481369  0.19050843    -0.15500
C725        C  0.90254572  0.22254091  0.17854853    -0.10300
C726        C  0.92669962  0.22811303  0.19187744     0.09000
C727        C  0.93798274  0.27854723  0.25241335     0.10000
S728        S  0.88301250  0.26940978  0.22603647    -0.24700
H729        H  0.87117462  0.23090949  0.18025341     0.20300
S730        S  0.94574317  0.21395666  0.17870738    -0.30400
H731        H  0.95584306  0.25016013  0.22609069     0.10600
C732        C  0.92888523  0.27442906  0.28361633     0.03800
C733        C  0.94267923  0.29371215  0.30597548    -0.12700
C734        C  0.96590372  0.31708000  0.29822875    -0.08300
C735        C  0.97522018  0.32059238  0.26682361     0.07300
C736        C  0.96111920  0.30155244  0.24454465    -0.13400
S737        S  0.90010704  0.24427761  0.29520058    -0.30300
H738        H  0.93528685  0.29041452  0.32975320     0.11500
S739        S  0.00460626  0.34894083  0.25296553    -0.27400
H740        H  0.96837982  0.30464443  0.22066212     0.08700
H741        H  0.92773446  0.19548439  0.15828811     0.27200
H742        H  0.90026484  0.25010861  0.32699684     0.22000
H743        H  0.02052742  0.34440606  0.27378738     0.27300
H744        H  0.90494444  0.29281703  0.23509706     0.16100
C745        C  0.91941679  0.27423983  0.07250741    -0.11200
C746        C  0.94550441  0.28273585  0.06523435     0.15400
C747        C  0.95873277  0.27216701  0.08224989     0.02300
C748        C  0.94485599  0.25149919  0.10379271    -0.15500
C749        C  0.91811944  0.24146165  0.10910474    -0.10300
C750        C  0.90555234  0.25371701  0.09408081     0.09000
C751        C  0.95673986  0.29939905  0.03667597     0.10000
S752        S  0.99259946  0.28265138  0.07544816    -0.24700
H753        H  0.95452760  0.24193616  0.11467505     0.20300
S754        S  0.87109669  0.24208517  0.09791569    -0.30400
H755        H  0.90922572  0.28234872  0.05952147     0.10600
C756        C  0.95223502  0.28567563  0.50421204     0.03800
C757        C  0.96108108  0.30278963  0.47803295    -0.12700
C758        C  0.97570204  0.32998977  0.48151651    -0.08300
C759        C  0.98130294  0.34003780  0.51226527     0.07300
C760        C  0.96571923  0.32620932  0.03793675    -0.13400
S761        S  0.94387830  0.25354252  0.00509183    -0.30300
H762        H  0.95666493  0.29492965  0.45470792     0.11500
S763        S  0.99815333  0.37445880  0.52016752    -0.27400
H764        H  0.96545801  0.33466153  0.06010395     0.08700
H765        H  0.86640429  0.22671165  0.12513409     0.27200
H766        H  0.93386212  0.25170704  0.46573774     0.22000
H767        H  0.98470987  0.38054137  0.49724439     0.27300
H768        H  0.99979066  0.30797968  0.06451137     0.16100
C769        C  0.31614532  0.92277618  0.43299245    -0.11200
C770        C  0.34105800  0.92633343  0.42755291     0.15400
C771        C  0.34328390  0.90567774  0.41496800     0.02300
C772        C  0.32096627  0.88350132  0.40448488    -0.15500
C773        C  0.29612836  0.88091485  0.40692633    -0.10300
C774        C  0.29369405  0.90028133  0.42289051     0.09000
C775        C  0.36396271  0.95313842  0.42826041     0.10000
S776        S  0.37436734  0.90807826  0.40755958    -0.24700
H777        H  0.32347970  0.86957228  0.39106446     0.20300
S778        S  0.26294386  0.89924217  0.42688060    -0.30400
H779        H  0.31429642  0.93858026  0.44264315     0.10600
C780        C  0.37348068  0.96802903  0.40028193     0.03800
C781        C  0.39651507  0.99226731  0.40067211    -0.12700
C782        C  0.41068903  0.00230891  0.42847257    -0.08300
C783        C  0.40037327  0.98754889  0.45684033     0.07300
C784        C  0.37706256  0.96338053  0.45639310    -0.13400
S785        S  0.35635419  0.95595388  0.36377549    -0.30300
H786        H  0.40366906  0.00328968  0.37888234     0.11500
S787        S  0.41628186  0.99749332  0.49417751    -0.27400
H788        H  0.36965621  0.95196027  0.47793236     0.08700
H789        H  0.24740762  0.87214297  0.42401049     0.27200
H790        H  0.37248094  0.97812509  0.34508298     0.22000
H791        H  0.44000581  0.00060904  0.48304367     0.27300
H792        H  0.38785261  0.92557007  0.43162477     0.16100
C793        C  0.24042503  0.79907080  0.45798302    -0.11200
C794        C  0.21422775  0.79214731  0.46196351     0.15400
C795        C  0.20297470  0.80201885  0.44034037     0.02300
C796        C  0.21780456  0.81774497  0.41491974    -0.15500
C797        C  0.24393765  0.82441782  0.41051179    -0.10300
C798        C  0.25531051  0.81482495  0.43248477     0.09000
C799        C  0.19876513  0.77315134  0.48750801     0.10000
S800        S  0.16970116  0.79491082  0.44350169    -0.24700
H801        H  0.20893945  0.82508705  0.39834672     0.20300
S802        S  0.28794209  0.82037499  0.42883571    -0.30400
H803        H  0.24908712  0.79133505  0.47433248     0.10600
C804        C  0.18187012  0.74655004  0.48137232     0.03800
C805        C  0.16526790  0.72856872  0.00440260    -0.12700
C806        C  0.16893263  0.73671584  0.03567483    -0.08300
C807        C  0.18587665  0.76349982  0.04166983     0.07300
C808        C  0.19980956  0.78091153  0.01688471    -0.13400
S809        S  0.17838472  0.73479857  0.44191883    -0.30300
H810        H  0.15233510  0.70816725  0.99952022     0.11500
S811        S  0.19003332  0.77687539  0.08019216    -0.27400
H812        H  0.21312084  0.80125093  0.02180182     0.08700
H813        H  0.29064494  0.82621861  0.39667791     0.27200
H814        H  0.16022838  0.70849673  0.44900441     0.22000
H815        H  0.16411185  0.76002060  0.08983178     0.27300
H816        H  0.16764094  0.79139575  0.47624338     0.16100
C817        C  0.21891244  0.76970103  0.31418274    -0.11200
C818        C  0.19763547  0.76945599  0.29931438     0.15400
C819        C  0.19038099  0.78789119  0.30778446     0.02300
C820        C  0.20621210  0.80784796  0.32820851    -0.15500
C821        C  0.22893470  0.80955376  0.34084954    -0.10300
C822        C  0.23482920  0.78973177  0.33444531     0.09000
C823        C  0.18634082  0.75274810  0.27167116     0.10000
S824        S  0.16237780  0.78812600  0.29135493    -0.24700
H825        H  0.20165976  0.82308966  0.33275826     0.20300
S826        S  0.26391018  0.79047138  0.34835258    -0.30400
H827        H  0.22450149  0.75553115  0.30781082     0.10600
C828        C  0.19320843  0.76343369  0.24100186     0.03800
C829        C  0.18287011  0.74707306  0.21523892    -0.12700
C830        C  0.16615716  0.72003016  0.21932398    -0.08300
C831        C  0.16019982  0.70929015  0.25030007     0.07300
C832        C  0.17003786  0.72578549  0.27598366    -0.13400
S833        S  0.21584511  0.79786366  0.23464005    -0.30300
H834        H  0.18780736  0.75543715  0.19174268     0.11500
S835        S  0.14162261  0.67469649  0.25890327    -0.27400
H836        H  0.16544756  0.71748378  0.29956356     0.08700
H837        H  0.28056705  0.81709097  0.34109874     0.27200
H838        H  0.21734647  0.79725191  0.20181625     0.22000
H839        H  0.15377036  0.66799392  0.23554838     0.27300
H840        H  0.14821621  0.76133432  0.28496842     0.16100
C841        C  0.41393016  0.27146299  0.09559521    -0.11200
C842        C  0.43872094  0.29358326  0.09139181     0.15400
C843        C  0.46086616  0.29100948  0.09773668     0.02300
C844        C  0.45772547  0.26788888  0.11189785    -0.15500
C845        C  0.43287397  0.24663259  0.11874189    -0.10300
C846        C  0.41090694  0.24805450  0.10840999     0.09000
C847        C  0.44064619  0.31964520  0.08588610     0.10000
S848        S  0.49367566  0.31713529  0.09025537    -0.24700
H849        H  0.47482975  0.26744434  0.12012881     0.20300
S850        S  0.37833544  0.22130419  0.11453775    -0.30400
H851        H  0.39669178  0.27287906  0.09081028     0.10600
C852        C  0.42858006  0.32498514  0.06034051     0.03800
C853        C  0.42860424  0.34887121  0.05861671    -0.12700
C854        C  0.44089277  0.36800040  0.08156993    -0.08300
C855        C  0.45448759  0.36315027  0.10591465     0.07300
C856        C  0.45349629  0.33899743  0.10826071    -0.13400
S857        S  0.41355984  0.30164882  0.02956652    -0.30300
H858        H  0.41860325  0.35245575  0.03952126     0.11500
S859        S  0.47452773  0.38719343  0.13411729    -0.27400
H860        H  0.46299746  0.33527631  0.12787004     0.08700
H861        H  0.38537635  0.20246438  0.10806836     0.27200
H862        H  0.40719019  0.31712593  0.01007288     0.22000
H863        H  0.48549026  0.40799476  0.11200180     0.27300
H864        H  0.48703599  0.32933788  0.06614552     0.16100
C865        C  0.42157592  0.14941651  0.23984071    -0.11200
C866        C  0.44557451  0.15041907  0.23696489     0.15400
C867        C  0.46164443  0.16381010  0.21076040     0.02300
C868        C  0.45466223  0.17817459  0.19012543    -0.15500
C869        C  0.43164027  0.17905346  0.19469377    -0.10300
C870        C  0.41432238  0.16326511  0.21904420     0.09000
C871        C  0.45415479  0.13988449  0.26368283     0.10000
S872        S  0.49192300  0.16451076  0.20346430    -0.24700
H873        H  0.46815490  0.19008345  0.17170143     0.20300
S874        S  0.38320131  0.16090040  0.22633374    -0.30400
H875        H  0.40888496  0.13875670  0.25948494     0.10600
C876        C  0.47287414  0.15673154  0.28520856     0.03800
C877        C  0.47842811  0.14625767  0.31209714    -0.12700
C878        C  0.46557233  0.11916954  0.31841679    -0.08300
C879        C  0.44663151  0.10234126  0.29677451     0.07300
C880        C  0.44129616  0.11285185  0.26974630    -0.13400
S881        S  0.48891563  0.19174342  0.27926005    -0.30300
H882        H  0.49296838  0.15934017  0.32833972     0.11500
S883        S  0.42747930  0.06748299  0.30294785    -0.27400
H884        H  0.42641790  0.09987927  0.25370070     0.08700
H885        H  0.37991206  0.16886025  0.19630008     0.27200
H886        H  0.50586791  0.19840048  0.30498030     0.22000
H887        H  0.42362755  0.06887703  0.33519147     0.27300
H888        H  0.48532553  0.14109552  0.21982488     0.16100
C889        C  0.45718743  0.16570149  0.51873019    -0.11200
C890        C  0.45517759  0.15579885  0.05125563     0.15400
C891        C  0.46104087  0.13591473  0.05870215     0.02300
C892        C  0.47039100  0.12762135  0.53340523    -0.15500
C893        C  0.46925918  0.13388953  0.50156416    -0.10300
C894        C  0.46206406  0.15303073  0.49441810     0.09000
C895        C  0.44931162  0.16967960  0.07580352     0.10000
S896        S  0.46285243  0.12606231  0.09854882    -0.24700
H897        H  0.47112722  0.10849932  0.04090437     0.20300
S898        S  0.45739311  0.16140614  0.45498783    -0.30400
H899        H  0.45157209  0.18014220  0.51293662     0.10600
C900        C  0.46739893  0.19562609  0.08365757     0.03800
C901        C  0.46109801  0.20797349  0.10706184    -0.12700
C902        C  0.43706179  0.19496930  0.12289830    -0.08300
C903        C  0.41890975  0.16897387  0.11479982     0.07300
C904        C  0.42526573  0.15665785  0.09154990    -0.13400
S905        S  0.49898072  0.21258495  0.06483304    -0.30300
H906        H  0.47521734  0.22754001  0.11383249     0.11500
S907        S  0.38723863  0.15037523  0.13290850    -0.27400
H908        H  0.41128438  0.13675215  0.08553718     0.08700
H909        H  0.44360188  0.13533006  0.44532206     0.27200
H910        H  0.50841875  0.23615509  0.08078584     0.22000
H911        H  0.38506334  0.17181591  0.14197086     0.27300
H912        H  0.47100065  0.15039897  0.11202970     0.16100
N913        N  0.43218197  0.20724626  0.64948327    -0.03300
C914        C  0.43005466  0.22918309  0.64800705    -0.00700
C915        C  0.42408774  0.23451090  0.67710177    -0.23600
C916        C  0.42266828  0.21561208  0.69739775    -0.23800
C917        C  0.42744262  0.19890180  0.68013804    -0.00800
H918        H  0.42177510  0.25093596  0.68305131     0.13000
H919        H  0.41943291  0.21471552  0.72243460     0.13000
N920        N  0.25566039  0.84145178  0.88315605    -0.03300
C921        C  0.27148037  0.86785317  0.88060226    -0.00700
C922        C  0.27476005  0.87585013  0.84942345    -0.23600
C923        C  0.26043522  0.85401641  0.83217519    -0.23800
C924        C  0.24901400  0.83324135  0.85324122    -0.00800
H925        H  0.28719432  0.89544411  0.84013312     0.13000
H926        H  0.25886835  0.85322702  0.80689291     0.13000
N927        N  0.89245921  0.20465167  0.64965537    -0.03300
C928        C  0.87475232  0.17859652  0.64908549    -0.00700
C929        C  0.87454255  0.16885073  0.61987484    -0.23600
C930        C  0.89235058  0.18928418  0.60168635    -0.23800
C931        C  0.90290248  0.21096639  0.62024495    -0.00800
H932        H  0.86159946  0.14919760  0.61211101     0.13000
H933        H  0.89630634  0.18871152  0.57708039     0.13000
N934        N  0.70906404  0.84242467  0.91177107    -0.03300
C935        C  0.71721817  0.82450951  0.91290139    -0.00700
C936        C  0.72193523  0.82017257  0.94364701    -0.23600
C937        C  0.71692226  0.83590122  0.96194809    -0.23800
C938        C  0.70902739  0.84926907  0.94203786    -0.00800
H939        H  0.72748556  0.80623875  0.95203505     0.13000
H940        H  0.71813525  0.83693678  0.98724017     0.13000
N941        N  0.87880510  0.64446374  0.59091070    -0.03300
C942        C  0.90443461  0.65128667  0.59012514    -0.00700
C943        C  0.91358146  0.65543934  0.55965625    -0.23600
C944        C  0.89322520  0.65123967  0.54077976    -0.23800
C945        C  0.87219989  0.64446133  0.56028526    -0.00800
H946        H  0.93297418  0.66050902  0.55203200     0.13000
H947        H  0.89354903  0.65266117  0.51543565     0.13000
N948        N  0.25676980  0.40158302  0.84238431    -0.03300
C949        C  0.23486310  0.40329982  0.83831509    -0.00700
C950        C  0.22804545  0.40099262  0.80703693    -0.23600
C951        C  0.24645242  0.39826533  0.79107462    -0.23800
C952        C  0.26396379  0.39895475  0.81304852    -0.00800
H953        H  0.21149386  0.40148995  0.79691893     0.13000
H954        H  0.24746419  0.39674383  0.76595219     0.13000
O955        O  0.96655544  0.33273802  0.84727865    -0.78300
C956        C  0.98363899  0.34714182  0.95237152     0.82800
O957        O  0.95765816  0.40471266  0.87249452    -0.79400
O958        O  0.03818516  0.43369447  0.93528258    -0.80900
O959        O  0.05833175  0.38680754  0.85907754    -0.80700
O960        O  0.00122198  0.35583908  0.81657272    -0.79300
Zn961      Zn  0.97180513  0.35612616  0.88459088     1.55700
O962        O  0.05985151  0.39448971  0.91021822    -0.80700
Cd963      Cd  0.02532969  0.38830863  0.84356948     1.59700
Cd964      Cd  0.99705662  0.41800916  0.87371508     1.59600
O965        O  0.03797195  0.42225555  0.81574587    -0.80700
O966        O  0.00474102  0.38905715  0.88017929    -1.91200
Cd967      Cd  0.02645577  0.39655770  0.91877667     1.59900
O968        O  0.01394302  0.43873808  0.83309329    -0.80700
O969        O  0.00483062  0.36900677  0.95317155    -0.79300
C970        C  0.93806085  0.38203503  0.87705423     0.83200
C971        C  0.97880570  0.33575040  0.82152582     0.82900
O972        O  0.97028720  0.33890010  0.92727073    -0.78300
C973        C  0.06936658  0.39022176  0.88581590     0.83700
O974        O  0.94078407  0.36229605  0.88305640    -0.78400
C975        C  0.03084045  0.43938085  0.81426942     0.83800
C976        C  0.03076909  0.45011784  0.92866026     0.84200
O977        O  0.01366150  0.44560581  0.90782374    -0.80800
O978        O  0.17108196  0.72004110  0.58895272    -0.78300
C979        C  0.15500609  0.70321560  0.69422644     0.82800
O980        O  0.18056951  0.64701887  0.61626794    -0.79400
O981        O  0.09996461  0.61805553  0.68032179    -0.80900
O982        O  0.08083214  0.66521796  0.60038747    -0.80700
O983        O  0.13739392  0.69634766  0.55777214    -0.79300
Zn984      Zn  0.16654017  0.69574071  0.62635767     1.55700
O985        O  0.07963153  0.65887299  0.65210225    -0.80700
Cd986      Cd  0.11364369  0.66367558  0.58600744     1.59700
Cd987      Cd  0.14128201  0.63356844  0.61920224     1.59600
O988        O  0.10099117  0.63005760  0.56002895    -0.80700
O989        O  0.13388923  0.66273706  0.62320785    -1.91200
Cd990      Cd  0.11200658  0.65518893  0.66157496     1.59900
O991        O  0.12362901  0.61238615  0.58016263    -0.80700
O992        O  0.13351018  0.68168959  0.69529847    -0.79300
C993        C  0.20012171  0.66986256  0.61867836     0.83200
C994        C  0.15906061  0.71705672  0.56301785     0.82900
O995        O  0.16860495  0.71186374  0.66905585    -0.78300
C996        C  0.07016229  0.66293789  0.62707411     0.83700
O997        O  0.19736630  0.68957905  0.62342398    -0.78400
C998        C  0.10740339  0.61241960  0.56050936     0.83800
C999        C  0.10824707  0.60213765  0.67621064     0.84200
O1000       O  0.12574508  0.60672418  0.65588900    -0.80800
O1001       O  0.48120072  0.12384481  0.87266227    -0.78300
C1002       C  0.47389192  0.11754591  0.97846430     0.82800
O1003       O  0.56217096  0.13720388  0.91070667    -0.79400
O1004       O  0.50734890  0.06305480  0.98514660    -0.80900
O1005       O  0.44588397  0.03454811  0.89843128    -0.80700
O1006       O  0.47157001  0.08715718  0.84842077    -0.79300
Zn1007     Zn  0.49896221  0.12304478  0.91357829     1.55700
O1008       O  0.44739101  0.03720239  0.95048098    -0.80700
Cd1009     Cd  0.48033904  0.06685155  0.88245573     1.59700
Cd1010     Cd  0.53595848  0.09788716  0.91807348     1.59600
O1011       O  0.50293926  0.05299846  0.86199731    -0.80700
O1012       O  0.49909763  0.09022021  0.91838391    -1.91200
Cd1013     Cd  0.48222050  0.07191479  0.95917631     1.59900
O1014       O  0.54158949  0.07649774  0.88475849    -0.80700
O1015       O  0.47322856  0.09602327  0.98521612    -0.79300
C1016       C  0.55857789  0.15669251  0.90849288     0.83200
C1017       C  0.47250001  0.10919322  0.84885197     0.82900
O1018       O  0.48236895  0.12902729  0.95187159    -0.78300
C1019       C  0.43589840  0.02548542  0.92549302     0.83700
O1020       O  0.53582413  0.15385908  0.91017070    -0.78400
C1021       C  0.52667179  0.05900049  0.86580906     0.83800
C1022       C  0.53162896  0.07075253  0.98210808     0.84200
O1023       O  0.54495833  0.08552035  0.95922090    -0.80800
O1024       O  0.65547494  0.92428587  0.62920168    -0.78300
C1025       C  0.66338110  0.92851106  0.73444266     0.82800
O1026       O  0.57569559  0.91240380  0.67147171    -0.79400
O1027       O  0.63253953  0.98424804  0.73967651    -0.80900
O1028       O  0.69286578  0.01537588  0.65266669    -0.80700
O1029       O  0.66912070  0.96278473  0.60518543    -0.79300
Zn1030     Zn  0.63850355  0.92519699  0.66996962     1.55700
O1031       O  0.69170210  0.01062681  0.70472201    -0.80700
Cd1032     Cd  0.65916717  0.98251067  0.63724997     1.59700
Cd1033     Cd  0.60293565  0.95177807  0.67301737     1.59600
O1034       O  0.63610731  0.99494698  0.61372623    -0.80700
O1035       O  0.63957560  0.95849316  0.67350872    -1.91200
Cd1036     Cd  0.65694694  0.97557233  0.71375422     1.59900
O1037       O  0.59672843  0.97037224  0.63522912    -0.80700
O1038       O  0.66489481  0.95029962  0.74057635    -0.79300
C1039       C  0.57863954  0.89255151  0.66993122     0.83200
C1040       C  0.66583945  0.93973895  0.60559058     0.82900
O1041       O  0.65505859  0.91802860  0.70793944    -0.78300
C1042       C  0.70271514  0.02363629  0.67962676     0.83700
O1043       O  0.60126196  0.89502938  0.66891213    -0.78400
C1044       C  0.61181489  0.98739192  0.61508711     0.83800
C1045       C  0.60899005  0.97896587  0.73596143     0.84200
O1046       O  0.59560941  0.96660008  0.71236148    -0.80800
C1047       C  0.73260487  0.38194040  0.85807670     0.80400
N1048       N  0.71120882  0.35843769  0.86495035    -0.77900
C1049       C  0.71332997  0.33680138  0.87006349     0.82900
N1050       N  0.73736212  0.33917388  0.86976140    -0.77800
C1051       C  0.75899789  0.36259074  0.86350884     0.83000
N1052       N  0.75652080  0.38399399  0.85801923    -0.79500
C1053       C  0.40608229  0.67017833  0.61878112     0.80400
N1054       N  0.38229103  0.66796487  0.61482633    -0.77900
C1055       C  0.37884783  0.68863494  0.61991532     0.82900
N1056       N  0.39935704  0.71153396  0.62928618    -0.77800
C1057       C  0.42322278  0.71400822  0.63349405     0.83000
N1058       N  0.42655550  0.69333069  0.62774091    -0.79500
O1059       O  0.37980320  0.43959623  0.54492551    -0.78300
C1060       C  0.39269488  0.43095046  0.65041225     0.82800
O1061       O  0.45089218  0.51807357  0.57551101    -0.79400
O1062       O  0.47897669  0.46570530  0.63529208    -0.80900
O1063       O  0.43409763  0.39915830  0.55644982    -0.80700
O1064       O  0.40095785  0.42560327  0.51510659    -0.79300
Zn1065     Zn  0.40234539  0.45453257  0.58376800     1.55700
O1066       O  0.44215309  0.40534601  0.60736806    -0.80700
Cd1067     Cd  0.43328731  0.43303151  0.54232003     1.59700
Cd1068     Cd  0.46348860  0.49128782  0.57169875     1.59600
O1069       O  0.46575913  0.45455464  0.51390602    -0.80700
O1070       O  0.43488876  0.45447146  0.57885625    -1.91200
Cd1071     Cd  0.44250039  0.43968266  0.61724917     1.59900
O1072       O  0.48141870  0.49557728  0.52912601    -0.80700
O1073       O  0.41441748  0.43141432  0.65100784    -0.79300
C1074       C  0.42849880  0.51440302  0.58292386     0.83200
C1075       C  0.38232816  0.43026265  0.51929124     0.82900
O1076       O  0.38481049  0.43715417  0.62540281    -0.78300
C1077       C  0.43893420  0.39201983  0.58299421     0.83700
O1078       O  0.40904954  0.49148105  0.58663134    -0.78400
C1079       C  0.48159971  0.47900597  0.51074149     0.83800
C1080       C  0.49612553  0.48891430  0.62702585     0.84200
O1081       O  0.49252583  0.50094932  0.60419027    -0.80800
O1082       O  0.76073500  0.61747612  0.79423374    -0.78300
C1083       C  0.74377339  0.61830493  0.89915123     0.82800
O1084       O  0.68754849  0.53695748  0.82268235    -0.79400
O1085       O  0.65969952  0.58963851  0.88141150    -0.80900
O1086       O  0.70679232  0.65739028  0.80307235    -0.80700
O1087       O  0.74020226  0.63202850  0.76301260    -0.79300
Zn1088     Zn  0.73660538  0.59970132  0.83163771     1.55700
O1089       O  0.69948177  0.65028076  0.85448722    -0.80700
Cd1090     Cd  0.70672638  0.62324949  0.78896559     1.59700
Cd1091     Cd  0.67517542  0.56407972  0.82082311     1.59600
O1092       O  0.67446296  0.60223926  0.76002735    -0.80700
O1093       O  0.70439515  0.60060871  0.82615026    -1.91200
Cd1094     Cd  0.69675328  0.61462242  0.86407186     1.59900
O1095       O  0.65659323  0.56147942  0.77919237    -0.80700
O1096       O  0.72247832  0.61870690  0.89917454    -0.79300
C1097       C  0.70997281  0.53977277  0.82790204     0.83200
C1098       C  0.75934681  0.62824426  0.76854944     0.82900
O1099       O  0.75283398  0.61394301  0.87431744    -0.78300
C1100       C  0.70290891  0.66425508  0.82985524     0.83700
O1101       O  0.72961628  0.56239635  0.83197006    -0.78400
C1102       C  0.65731629  0.57802973  0.75897551     0.83800
C1103       C  0.64317314  0.56582611  0.87635806     0.84200
O1104       O  0.64686126  0.55329323  0.85501638    -0.80800
C1105       C  0.56764191  0.53304831  0.64681771    -0.11200
C1106       C  0.56707017  0.53013125  0.67949047     0.15400
C1107       C  0.54319470  0.51326598  0.69483930     0.02300
C1108       C  0.52050738  0.49948106  0.67714963    -0.15500
C1109       C  0.52096001  0.50248318  0.64438965    -0.10300
C1110       C  0.54501482  0.51920996  0.62909094     0.09000
C1111       C  0.59195312  0.54335693  0.69672501     0.10000
S1112       S  0.54043354  0.50833488  0.73684250    -0.24700
H1113       H  0.50223539  0.48678457  0.68914321     0.20300
S1114       S  0.54853972  0.52264003  0.58700469    -0.30400
H1115       H  0.58604089  0.54555662  0.63497289     0.10600
C1116       C  0.60457178  0.52964286  0.70648291     0.03800
C1117       C  0.62681192  0.54206415  0.72521791    -0.12700
C1118       C  0.63696106  0.56809818  0.73432833    -0.08300
C1119       C  0.62512477  0.58228789  0.72265924     0.07300
C1120       C  0.60269805  0.56971487  0.70417440    -0.13400
S1121       S  0.59193120  0.49607522  0.69568757    -0.30300
H1122       H  0.63593742  0.53115568  0.73360345     0.11500
S1123       S  0.63621367  0.61561265  0.73261379    -0.27400
H1124       H  0.59309044  0.58031380  0.69629563     0.08700
H1125       H  0.53054255  0.49629532  0.58114082     0.27200
H1126       H  0.61172575  0.49281248  0.70963509     0.22000
H1127       H  0.66110916  0.62480104  0.71948982     0.27300
H1128       H  0.56101884  0.53315443  0.74442762     0.16100
C1129       C  0.59262699  0.54706853  0.94148172    -0.11200
C1130       C  0.57061679  0.52652744  0.92772432     0.15400
C1131       C  0.57251671  0.51887654  0.89724685     0.02300
C1132       C  0.59650051  0.53161623  0.88148838    -0.15500
C1133       C  0.61871470  0.55232528  0.89513014    -0.10300
C1134       C  0.61660967  0.55981430  0.92581686     0.09000
C1135       C  0.54622399  0.51334869  0.94625595     0.10000
S1136       S  0.54509174  0.49329559  0.87703274    -0.24700
H1137       H  0.59760083  0.52566926  0.85798128     0.20300
S1138       S  0.64385418  0.58433148  0.94719102    -0.30400
H1139       H  0.59075380  0.55051111  0.46592926     0.10600
C1140       C  0.53848685  0.48622291  0.46379034     0.03800
C1141       C  0.51614992  0.47558724  0.48284410    -0.12700
C1142       C  0.50184043  0.48848179  0.48613918    -0.08300
C1143       C  0.50925694  0.51173311  0.46861392     0.07300
C1144       C  0.53284290  0.52684886  0.95158699    -0.13400
S1145       S  0.55769060  0.47030206  0.46187643    -0.30300
H1146       H  0.51058609  0.45789858  0.49650769     0.11500
S1147       S  0.49092321  0.52856106  0.46907432    -0.27400
H1148       H  0.53988875  0.54604448  0.94091805     0.08700
H1149       H  0.66066937  0.57550467  0.93755554     0.27200
H1150       H  0.54138143  0.44854588  0.48106126     0.22000
H1151       H  0.46649836  0.50593848  0.47375863     0.27300
H1152       H  0.52572534  0.49625786  0.89206581     0.16100
C1153       C  0.42613472  0.61845193  0.62698061    -0.11200
C1154       C  0.41571342  0.60431925  0.59956798     0.15400
C1155       C  0.40179373  0.61174936  0.57874061     0.02300
C1156       C  0.39909493  0.63335463  0.58553396    -0.15500
C1157       C  0.40957768  0.64754821  0.61295549    -0.10300
C1158       C  0.42298248  0.63970029  0.63407274     0.09000
C1159       C  0.41893849  0.58139649  0.59430525     0.10000
S1160       S  0.38687809  0.59451649  0.54331317    -0.24700
H1161       H  0.38865950  0.63912530  0.56926655     0.20300
S1162       S  0.43531925  0.65502416  0.67117545    -0.30400
H1163       H  0.43641577  0.61253398  0.64330774     0.10600
C1164       C  0.43622458  0.58175160  0.57149787     0.03800
C1165       C  0.43903114  0.55967885  0.56825649    -0.12700
C1166       C  0.42506541  0.53729934  0.58756384    -0.08300
C1167       C  0.40827673  0.53741526  0.61096837     0.07300
C1168       C  0.40517523  0.55922420  0.61373929    -0.13400
S1169       S  0.45520408  0.61053382  0.54715339    -0.30300
H1170       H  0.45209091  0.55979795  0.55054310     0.11500
S1171       S  0.39146170  0.51114457  0.63933681    -0.27400
H1172       H  0.39230736  0.55916548  0.63172501     0.08700
H1173       H  0.41459625  0.65953024  0.67722501     0.27200
H1174       H  0.46795111  0.60038936  0.52950804     0.22000
H1175       H  0.41241323  0.50656709  0.64379724     0.27300
H1176       H  0.38261840  0.56996331  0.55366440     0.16100
C1177       C  0.74156876  0.44661512  0.82548809    -0.11200
C1178       C  0.72439037  0.45000338  0.84464796     0.15400
C1179       C  0.70975795  0.43080368  0.86779040     0.02300
C1180       C  0.71240157  0.40862522  0.87108167    -0.15500
C1181       C  0.72982283  0.40527400  0.85222782    -0.10300
C1182       C  0.74429106  0.42445188  0.82881026     0.09000
C1183       C  0.72137915  0.47322961  0.83926741     0.10000
S1184       S  0.68758248  0.43360065  0.89403693    -0.24700
H1185       H  0.70120691  0.39415052  0.88913387     0.20300
S1186       S  0.76541680  0.42120695  0.80131371    -0.30400
H1187       H  0.75254104  0.46112104  0.80736655     0.10600
C1188       C  0.73991491  0.49789997  0.85024226     0.03800
C1189       C  0.73583111  0.51915721  0.84569366    -0.12700
C1190       C  0.71348126  0.51643642  0.83035034    -0.08300
C1191       C  0.69512090  0.49155650  0.81871841     0.07300
C1192       C  0.69932079  0.47033470  0.82346529    -0.13400
S1193       S  0.76831508  0.50205509  0.87113881    -0.30300
H1194       H  0.74996745  0.53792953  0.85478084     0.11500
S1195       S  0.66669680  0.48637035  0.79688379    -0.27400
H1196       H  0.68538684  0.45127852  0.81485077     0.08700
H1197       H  0.74946855  0.39405038  0.79828684     0.27200
H1198       H  0.77904549  0.52876947  0.87714329     0.22000
H1199       H  0.65526304  0.45919862  0.79383352     0.27300
H1200       H  0.70157862  0.46097944  0.89552853     0.16100
C1201       C  0.53299183  0.81877425  0.67482145    -0.11200
C1202       C  0.51136923  0.81619777  0.65816315     0.15400
C1203       C  0.51127252  0.83893037  0.64746188     0.02300
C1204       C  0.53299654  0.86351630  0.65277211    -0.15500
C1205       C  0.55518406  0.86613266  0.66825413    -0.10300
C1206       C  0.55467105  0.84335051  0.68027802     0.09000
C1207       C  0.48915016  0.78959548  0.65269446     0.10000
S1208       S  0.48440282  0.83793195  0.62613166    -0.24700
H1209       H  0.53291766  0.88072334  0.64362667     0.20300
S1210       S  0.58040226  0.84419679  0.70390183    -0.30400
H1211       H  0.53285257  0.80143422  0.68389180     0.10600
C1212       C  0.49164525  0.77223668  0.63281392     0.03800
C1213       C  0.47004415  0.74743504  0.62777695    -0.12700
C1214       C  0.44582418  0.73956011  0.64200446    -0.08300
C1215       C  0.44364451  0.75681491  0.66265338     0.07300
C1216       C  0.46520119  0.78159902  0.66754111    -0.13400
S1217       S  0.52196712  0.78214631  0.61251995    -0.30300
H1218       H  0.47180796  0.73441906  0.61182804     0.11500
S1219       S  0.41432359  0.74820845  0.68437247    -0.27400
H1220       H  0.46337386  0.79475161  0.68324692     0.08700
H1221       H  0.58570133  0.86689625  0.71982917     0.27200
H1222       H  0.51407277  0.75833497  0.59773698     0.22000
H1223       H  0.40756801  0.72201007  0.68983635     0.27300
H1224       H  0.47684600  0.81434573  0.61101209     0.16100
C1225       C  0.64367310  0.27885926  0.87371801    -0.11200
C1226       C  0.64693511  0.26120159  0.89299391     0.15400
C1227       C  0.67190128  0.26856543  0.90484342     0.02300
C1228       C  0.69302614  0.29314789  0.89682972    -0.15500
C1229       C  0.68996731  0.31093025  0.87728932    -0.10300
C1230       C  0.66481134  0.30337445  0.86541478     0.09000
C1231       C  0.62442905  0.23449952  0.89791517     0.10000
S1232       S  0.67809494  0.24746937  0.93021751    -0.24700
H1233       H  0.71201830  0.29850167  0.90630582     0.20300
S1234       S  0.65846742  0.32301536  0.83779392    -0.30400
H1235       H  0.62462477  0.27304678  0.86404547     0.10600
C1236       C  0.60307562  0.22962372  0.91700710     0.03800
C1237       C  0.58175670  0.20411511  0.91987488    -0.12700
C1238       C  0.58131399  0.18332478  0.90398146    -0.08300
C1239       C  0.60267870  0.18848450  0.88446800     0.07300
C1240       C  0.62404560  0.21383846  0.88202446    -0.13400
S1241       S  0.60334579  0.25577088  0.93835875    -0.30300
H1242       H  0.56549884  0.20025123  0.93490759     0.11500
S1243       S  0.60327728  0.16403042  0.86058959    -0.27400
H1244       H  0.64026135  0.21768104  0.86687746     0.08700
H1245       H  0.68089063  0.33025782  0.81959593     0.27200
H1246       H  0.57852917  0.24080851  0.95216414     0.22000
H1247       H  0.57673372  0.15188380  0.85259188     0.27300
H1248       H  0.65315682  0.23405742  0.94399061     0.16100
C1249       C  0.56528018  0.99727920  0.56232468    -0.11200
C1250       C  0.57864762  0.02453580  0.55857969     0.15400
C1251       C  0.60346433  0.03934744  0.57231260     0.02300
C1252       C  0.61437103  0.02661056  0.58924725    -0.15500
C1253       C  0.60081706  0.99935472  0.59354221    -0.10300
C1254       C  0.57614215  0.98453868  0.57934176     0.09000
C1255       C  0.56684791  0.03677115  0.53876109     0.10000
S1256       S  0.62206322  0.07452427  0.56942685    -0.24700
H1257       H  0.63318631  0.03818540  0.60020289     0.20300
S1258       S  0.55802336  0.94932682  0.58094118    -0.30400
H1259       H  0.54647082  0.98581079  0.55131028     0.10600
C1260       C  0.57803849  0.04805960  0.01021991     0.03800
C1261       C  0.56562155  0.05864612  0.99205376    -0.12700
C1262       C  0.54496962  0.06127465  0.00410885    -0.08300
C1263       C  0.53738477  0.05374424  0.03577836     0.07300
C1264       C  0.54630518  0.03938792  0.55077744    -0.13400
S1265       S  0.60363866  0.04403795  0.99320641    -0.30300
H1266       H  0.57169816  0.06433833  0.96793090     0.11500
S1267       S  0.51001967  0.05528639  0.55161772    -0.27400
H1268       H  0.53945955  0.03258979  0.57451109     0.08700
H1269       H  0.58006127  0.94620542  0.58093509     0.27200
H1270       H  0.60295167  0.05370131  0.96300230     0.22000
H1271       H  0.52072512  0.08272704  0.04001977     0.27300
H1272       H  0.60067330  0.07855879  0.56683884     0.16100
C1273       C  0.56546156  0.02612869  0.84478097    -0.11200
C1274       C  0.56127478  0.02312205  0.81243131     0.15400
C1275       C  0.54438480  0.03059472  0.79794525     0.02300
C1276       C  0.53247744  0.04129101  0.81601125    -0.15500
C1277       C  0.53740496  0.04515463  0.84823129    -0.10300
C1278       C  0.55358455  0.03676441  0.86282279     0.09000
C1279       C  0.57410485  0.01131485  0.79472518     0.10000
S1280       S  0.53770807  0.02754871  0.75647916    -0.24700
H1281       H  0.52002150  0.04750851  0.80461874     0.20300
S1282       S  0.55903595  0.03802077  0.90454481    -0.30400
H1283       H  0.57784536  0.01979242  0.85613159     0.10600
C1284       C  0.60123234  0.02489697  0.78919441     0.03800
C1285       C  0.61239659  0.01334259  0.77126567    -0.12700
C1286       C  0.59699793  0.98840081  0.75882268    -0.08300
C1287       C  0.57002005  0.97427766  0.76605615     0.07300
C1288       C  0.55887706  0.98599918  0.78349652    -0.13400
S1289       S  0.62142775  0.05753253  0.80345186    -0.30300
H1290       H  0.63301315  0.02424885  0.76575544     0.11500
S1291       S  0.54884493  0.94103267  0.75449501    -0.27400
H1292       H  0.53814657  0.97526359  0.78850410     0.08700
H1293       H  0.53398751  0.03295665  0.91299012     0.27200
H1294       H  0.64546129  0.06057255  0.79376611     0.22000
H1295       H  0.56792618  0.93357636  0.75724892     0.27300
H1296       H  0.56199715  0.03113721  0.74705904     0.16100
C1297       C  0.25728034  0.66035348  0.59858014    -0.11200
C1298       C  0.27642474  0.67792092  0.61884015     0.15400
C1299       C  0.27080908  0.69380326  0.63773278     0.02300
C1300       C  0.24615419  0.69154964  0.63623455    -0.15500
C1301       C  0.22665801  0.67340674  0.61665108    -0.10300
C1302       C  0.23264744  0.65809933  0.59701380     0.09000
C1303       C  0.30241837  0.68008208  0.61859883     0.10000
S1304       S  0.29401218  0.71684015  0.66474880    -0.24700
H1305       H  0.24187506  0.70340860  0.65137170     0.20300
S1306       S  0.21028965  0.63624156  0.56841764    -0.30400
H1307       H  0.26175804  0.64862590  0.58345610     0.10600
C1308       C  0.30623141  0.65990319  0.63082165     0.03800
C1309       C  0.33125783  0.66288267  0.63015746    -0.12700
C1310       C  0.35258111  0.68566713  0.61755435    -0.08300
C1311       C  0.34844873  0.70549913  0.60449523     0.07300
C1312       C  0.32354113  0.70259894  0.60545774    -0.13400
S1313       S  0.27948298  0.63089966  0.64854307    -0.30300
H1314       H  0.33439674  0.64774835  0.64033871     0.11500
S1315       S  0.37380540  0.73446060  0.58515675    -0.27400
H1316       H  0.32048547  0.71788050  0.59551529     0.08700
H1317       H  0.19980499  0.65229337  0.56023798     0.27200
H1318       H  0.29331743  0.61770904  0.65480995     0.22000
H1319       H  0.38643438  0.72202794  0.57221286     0.27300
H1320       H  0.30680906  0.70272385  0.67161322     0.16100
C1321       C  0.87979841  0.38850955  0.85163208    -0.11200
C1322       C  0.86118543  0.37286503  0.87431920     0.15400
C1323       C  0.86771849  0.35979688  0.89760909     0.02300
C1324       C  0.89264927  0.36254369  0.89756743    -0.15500
C1325       C  0.91153830  0.37866721  0.87523720    -0.10300
C1326       C  0.90487107  0.39159940  0.85180031     0.09000
C1327       C  0.83495902  0.37013762  0.87227067     0.10000
S1328       S  0.84522796  0.33951688  0.92803489    -0.24700
H1329       H  0.89756828  0.35257477  0.91561676     0.20300
S1330       S  0.92762971  0.41096516  0.82095963    -0.30400
H1331       H  0.87448992  0.39817072  0.83363088     0.10600
C1332       C  0.83022676  0.38965261  0.88332858     0.03800
C1333       C  0.80544711  0.38697596  0.87957276    -0.12700
C1334       C  0.78519856  0.36511916  0.86495146    -0.08300
C1335       C  0.79026083  0.34581754  0.85335581     0.07300
C1336       C  0.81491848  0.34839764  0.85748236    -0.13400
S1337       S  0.85563531  0.41763099  0.90294111    -0.30300
H1338       H  0.80166392  0.40171527  0.88863667     0.11500
S1339       S  0.76665810  0.31817405  0.83167025    -0.27400
H1340       H  0.81873897  0.33366362  0.84840635     0.08700
H1341       H  0.91116167  0.41786654  0.80466442     0.27200
H1342       H  0.84096082  0.42981681  0.90893165     0.22000
H1343       H  0.75586829  0.33178525  0.81614416     0.27300
H1344       H  0.83127543  0.35292326  0.92950684     0.16100
C1345       C  0.05494332  0.52112797  0.94875139    -0.11200
C1346       C  0.06316299  0.52172692  0.97968290     0.15400
C1347       C  0.06266578  0.49792099  0.49749292     0.02300
C1348       C  0.05084242  0.47598170  0.97643949    -0.15500
C1349       C  0.04240526  0.47519977  0.94541849    -0.10300
C1350       C  0.04510848  0.49840824  0.93129704     0.09000
C1351       C  0.07500620  0.54524944  0.50264362     0.10000
S1352       S  0.07440965  0.49609519  0.53607895    -0.24700
H1353       H  0.04905889  0.45850293  0.98757564     0.20300
S1354       S  0.03808494  0.50105020  0.89060924    -0.30400
H1355       H  0.05703515  0.53879636  0.93777917     0.10600
C1356       C  0.10219407  0.56109079  0.50558771     0.03800
C1357       C  0.11228696  0.58358938  0.52357597    -0.12700
C1358       C  0.09576283  0.59087247  0.53816212    -0.08300
C1359       C  0.06853072  0.57542837  0.53410919     0.07300
C1360       C  0.05845140  0.55275378  0.51651471    -0.13400
S1361       S  0.12398491  0.55254250  0.48660077    -0.30300
H1362       H  0.13314951  0.59540183  0.52675181     0.11500
S1363       S  0.04570269  0.58226043  0.55328918    -0.27400
H1364       H  0.03752942  0.54055057  0.51415023     0.08700
H1365       H  0.04928144  0.48656695  0.87967704     0.27200
H1366       H  0.14737441  0.57407044  0.49665130     0.22000
H1367       H  0.05560507  0.60693526  0.53852283     0.27300
H1368       H  0.07009961  0.51497525  0.54982847     0.16100
C1369       C  0.07949249  0.49719845  0.76361302    -0.11200
C1370       C  0.06374585  0.50713065  0.75255355     0.15400
C1371       C  0.03684639  0.49340781  0.75968999     0.02300
C1372       C  0.02664386  0.47098649  0.77898973    -0.15500
C1373       C  0.04241655  0.46120732  0.79074162    -0.10300
C1374       C  0.06915132  0.47438674  0.78236225     0.09000
C1375       C  0.07593971  0.53187358  0.73382017     0.10000
S1376       S  0.01454167  0.50363776  0.74534606    -0.24700
H1377       H  0.00610080  0.46110837  0.78502317     0.20300
S1378       S  0.09148484  0.46444809  0.79699261    -0.30400
H1379       H  0.10013079  0.50759451  0.75804829     0.10600
C1380       C  0.07897893  0.55525743  0.74580799     0.03800
C1381       C  0.08940757  0.57782623  0.72649578    -0.12700
C1382       C  0.09716173  0.57763262  0.69546636    -0.08300
C1383       C  0.09422077  0.55405799  0.68373069     0.07300
C1384       C  0.08404281  0.53169201  0.70313473    -0.13400
S1385       S  0.07013057  0.55649361  0.78590876    -0.30300
H1386       H  0.09181944  0.59580069  0.73571588     0.11500
S1387       S  0.10155729  0.55057010  0.64377833    -0.27400
H1388       H  0.08157791  0.51368070  0.69388508     0.08700
H1389       H  0.07847095  0.44021308  0.78216362     0.27200
H1390       H  0.07788911  0.58319486  0.78555885     0.22000
H1391       H  0.09056490  0.56488684  0.63061822     0.27300
H1392       H  0.02810282  0.51563599  0.71740403     0.16100
C1393       C  0.18990281  0.42374383  0.87111901    -0.11200
C1394       C  0.17199131  0.40068864  0.88701411     0.15400
C1395       C  0.17909317  0.38153679  0.89381581     0.02300
C1396       C  0.20230413  0.38442103  0.88126467    -0.15500
C1397       C  0.21873764  0.40625601  0.86241231    -0.10300
C1398       C  0.21321372  0.42683794  0.85913443     0.09000
C1399       C  0.14485686  0.39565661  0.89098247     0.10000
S1400       S  0.15853164  0.35231291  0.91654857    -0.24700
H1401       H  0.20633267  0.36850776  0.88389272     0.20300
S1402       S  0.23376292  0.45633635  0.83669602    -0.30400
H1403       H  0.18484583  0.43869819  0.86600305     0.10600
C1404       C  0.13914296  0.41181323  0.90913337     0.03800
C1405       C  0.11406997  0.40888326  0.90795180    -0.12700
C1406       C  0.09449183  0.39028094  0.88869620    -0.08300
C1407       C  0.09994090  0.37320045  0.87187578     0.07300
C1408       C  0.12498117  0.37623629  0.87296693    -0.13400
S1409       S  0.16386539  0.43630277  0.93361166    -0.30300
H1410       H  0.10996128  0.42178322  0.92127312     0.11500
S1411       S  0.07578004  0.34692066  0.84895898    -0.27400
H1412       H  0.12920381  0.36370694  0.85899700     0.08700
H1413       H  0.25645450  0.45441815  0.83838748     0.27200
H1414       H  0.14899660  0.44727966  0.94385611     0.22000
H1415       H  0.05483493  0.34113101  0.86920901     0.27300
H1416       H  0.14571213  0.36288109  0.93325928     0.16100
C1417       C  0.29339013  0.38839572  0.90570561    -0.11200
C1418       C  0.30445394  0.41176386  0.92218845     0.15400
C1419       C  0.29773096  0.43091067  0.91359156     0.02300
C1420       C  0.28052573  0.42635976  0.88861461    -0.15500
C1421       C  0.27048716  0.40349982  0.87120621    -0.10300
C1422       C  0.27628754  0.38393918  0.88073936     0.09000
C1423       C  0.32344196  0.41567569  0.94745895     0.10000
S1424       S  0.31121146  0.46196592  0.93249386    -0.24700
H1425       H  0.27613590  0.44141870  0.88149953     0.20300
S1426       S  0.26188341  0.35258680  0.86255616    -0.30400
H1427       H  0.29807946  0.37344601  0.91244237     0.10600
C1428       C  0.31737163  0.41505254  0.97945876     0.03800
C1429       C  0.33760373  0.41785641  0.50063671    -0.12700
C1430       C  0.36372584  0.42598229  0.49328015    -0.08300
C1431       C  0.37177075  0.43151807  0.46139423     0.07300
C1432       C  0.34811769  0.41997745  0.93899266    -0.13400
S1433       S  0.28534531  0.40832917  0.99126006    -0.30300
H1434       H  0.33132430  0.41384906  0.52489524     0.11500
S1435       S  0.40509886  0.44432927  0.44897984    -0.27400
H1436       H  0.35285888  0.42055380  0.91438530     0.08700
H1437       H  0.23942245  0.35266167  0.85185015     0.27200
H1438       H  0.28877871  0.40185804  0.51995028     0.22000
H1439       H  0.41581318  0.46236689  0.47327330     0.27300
H1440       H  0.33385795  0.46600938  0.45307314     0.16100
C1441       C  0.33136210  0.42540421  0.78046471    -0.11200
C1442       C  0.32702376  0.40460748  0.76137290     0.15400
C1443       C  0.30449297  0.38003311  0.76632299     0.02300
C1444       C  0.28515507  0.37777822  0.78686837    -0.15500
C1445       C  0.28810128  0.39937114  0.80332510    -0.10300
C1446       C  0.31207274  0.42302149  0.80146781     0.09000
C1447       C  0.34354866  0.41035102  0.73303617     0.10000
S1448       S  0.29816461  0.35164393  0.74464848    -0.24700
H1449       H  0.26675508  0.35957328  0.78809264     0.20300
S1450       S  0.31681423  0.45130897  0.82216816    -0.30400
H1451       H  0.34880493  0.44418201  0.77676982     0.10600
C1452       C  0.33430731  0.41247290  0.70320312     0.03800
C1453       C  0.35055416  0.41867428  0.67686516    -0.12700
C1454       C  0.37630453  0.42355387  0.67949912    -0.08300
C1455       C  0.38563672  0.42203713  0.70989832     0.07300
C1456       C  0.36907815  0.41514941  0.73603701    -0.13400
S1457       S  0.30205883  0.40828357  0.69876799    -0.30300
H1458       H  0.34312682  0.41999458  0.65407599     0.11500
S1459       S  0.41865128  0.42983165  0.71772182    -0.27400
H1460       H  0.37633862  0.41408726  0.75908613     0.08700
H1461       H  0.34373395  0.46666940  0.81622572     0.27200
H1462       H  0.30372125  0.41400712  0.66641096     0.22000
H1463       H  0.42964125  0.45441180  0.70236827     0.27300
H1464       H  0.32442742  0.35968210  0.73845459     0.16100
C1465       C  0.01328439  0.67445489  0.60865440    -0.11200
C1466       C  0.99683238  0.66204461  0.63454687     0.15400
C1467       C  0.00521346  0.65121193  0.65855115     0.02300
C1468       C  0.02924978  0.65219983  0.65564137    -0.15500
C1469       C  0.04566304  0.66419519  0.62941945    -0.10300
C1470       C  0.03765338  0.67614830  0.60609820     0.09000
C1471       C  0.97020537  0.65864502  0.63392418     0.10000
S1472       S  0.98604330  0.63565920  0.69331056    -0.24700
H1473       H  0.03495134  0.64311502  0.67397002     0.20300
S1474       S  0.05758409  0.69441068  0.57286734    -0.30400
H1475       H  0.00697658  0.68282129  0.59009338     0.10600
C1476       C  0.96617080  0.68022693  0.63301864     0.03800
C1477       C  0.94168859  0.67661890  0.62423633    -0.12700
C1478       C  0.92125766  0.65188320  0.61615823    -0.08300
C1479       C  0.92448808  0.62998471  0.62121282     0.07300
C1480       C  0.94889171  0.63355407  0.62972658    -0.13400
S1481       S  0.99274076  0.71260991  0.64061423    -0.30300
H1482       H  0.93941988  0.69349785  0.61996957     0.11500
S1483       S  0.89925808  0.59747054  0.61215584    -0.27400
H1484       H  0.95175209  0.61682547  0.63074572     0.08700
H1485       H  0.08060403  0.70760330  0.59044820     0.27200
H1486       H  0.97807163  0.72533767  0.63866848     0.22000
H1487       H  0.87911756  0.60193952  0.62106143     0.27300
H1488       H  0.97316754  0.65019070  0.69366757     0.16100
C1489       C  0.82128781  0.64123651  0.72496715    -0.11200
C1490       C  0.81359602  0.64007007  0.69357971     0.15400
C1491       C  0.78873284  0.63687986  0.68714792     0.02300
C1492       C  0.77199989  0.63406249  0.71194895    -0.15500
C1493       C  0.77942202  0.63475851  0.74350104    -0.10300
C1494       C  0.80484875  0.63914864  0.74979632     0.09000
C1495       C  0.83136571  0.64114338  0.66815181     0.10000
S1496       S  0.77702082  0.63592113  0.64777739    -0.24700
H1497       H  0.75269448  0.63069578  0.70641364     0.20300
S1498       S  0.81791156  0.64293080  0.78880528    -0.30400
H1499       H  0.84036819  0.64384579  0.73018738     0.10600
C1500       C  0.85577605  0.66365302  0.66208571     0.03800
C1501       C  0.87144275  0.66388794  0.63726942    -0.12700
C1502       C  0.86323404  0.64220686  0.61808061    -0.08300
C1503       C  0.83905799  0.61949537  0.62462006     0.07300
C1504       C  0.82351462  0.61917899  0.64957662    -0.13400
S1505       S  0.86639888  0.69261562  0.68480092    -0.30300
H1506       H  0.88980858  0.68134247  0.63195977     0.11500
S1507       S  0.82824446  0.59040749  0.60227272    -0.27400
H1508       H  0.80506150  0.60174377  0.65471408     0.08700
H1509       H  0.80647381  0.65728311  0.79939774     0.27200
H1510       H  0.89086517  0.70767152  0.67019580     0.22000
H1511       H  0.80257273  0.57685701  0.61398724     0.27300
H1512       H  0.80154205  0.65271443  0.63415244     0.16100
C1513       C  0.81379681  0.61465290  0.50793860    -0.11200
C1514       C  0.80686532  0.63406233  0.50752183     0.15400
C1515       C  0.81848601  0.65460534  0.52900005     0.02300
C1516       C  0.83816426  0.65622798  0.54893209    -0.15500
C1517       C  0.84651849  0.63787525  0.54744893    -0.10300
C1518       C  0.83381074  0.61658441  0.52718488     0.09000
C1519       C  0.78537444  0.62624902  0.98495486     0.10000
S1520       S  0.81055963  0.68030348  0.53023629    -0.24700
H1521       H  0.84829104  0.67288555  0.56394566     0.20300
S1522       S  0.84456626  0.59297742  0.52375811    -0.30400
H1523       H  0.79135948  0.58567128  0.99547223     0.10600
C1524       C  0.79874694  0.64057517  0.95771194     0.03800
C1525       C  0.78473099  0.63821385  0.93011586    -0.12700
C1526       C  0.75761845  0.62169783  0.92919394    -0.08300
C1527       C  0.74431174  0.60778168  0.95683029     0.07300
C1528       C  0.75825679  0.61048000  0.98436919    -0.13400
S1529       S  0.83385196  0.66047683  0.95752466    -0.30300
H1530       H  0.79493383  0.64878231  0.90899257     0.11500
S1531       S  0.71001611  0.58416282  0.95792594    -0.27400
H1532       H  0.75528646  0.60308304  0.50291575     0.08700
H1533       H  0.82615659  0.57723759  0.50140811     0.27200
H1534       H  0.83649179  0.66971468  0.92633628     0.22000
H1535       H  0.70938151  0.57401142  0.92823390     0.27300
H1536       H  0.78551368  0.66597322  0.51736533     0.16100
C1537       C  0.68908206  0.71618283  0.86103797    -0.11200
C1538       C  0.70637581  0.73837147  0.84330672     0.15400
C1539       C  0.72098649  0.73557730  0.81913747     0.02300
C1540       C  0.71889545  0.71111496  0.81434029    -0.15500
C1541       C  0.70231917  0.68908132  0.83301964    -0.10300
C1542       C  0.68651647  0.69171102  0.85587371     0.09000
C1543       C  0.71095870  0.76427946  0.85370415     0.10000
S1544       S  0.74295944  0.76257706  0.79408666    -0.24700
H1545       H  0.73088568  0.70948874  0.79647525     0.20300
S1546       S  0.66233901  0.66463649  0.87915612    -0.30400
H1547       H  0.67775562  0.71804810  0.87960552     0.10600
C1548       C  0.69098977  0.77073863  0.85395447     0.03800
C1549       C  0.69455503  0.79267497  0.87048760    -0.12700
C1550       C  0.71764196  0.80816401  0.88706912    -0.08300
C1551       C  0.73843936  0.80289120  0.88426556     0.07300
C1552       C  0.73481172  0.78114306  0.86776831    -0.13400
S1553       S  0.66051368  0.75029719  0.83447352    -0.30300
H1554       H  0.67853323  0.79642436  0.87267656     0.11500
S1555       S  0.76966642  0.82182175  0.90299292    -0.27400
H1556       H  0.75029080  0.77642773  0.86751270     0.08700
H1557       H  0.65425128  0.64665824  0.85474101     0.27200
H1558       H  0.64918166  0.76577959  0.84033071     0.22000
H1559       H  0.76780728  0.84408076  0.90850285     0.27300
H1560       H  0.73005371  0.77695519  0.79683215     0.16100
C1561       C  0.71227592  0.90600114  0.98404973    -0.11200
C1562       C  0.68772280  0.89380861  0.99863783     0.15400
C1563       C  0.66857371  0.86871810  0.98896527     0.02300
C1564       C  0.67517833  0.85544835  0.96732551    -0.15500
C1565       C  0.70030827  0.86693717  0.95428803    -0.10300
C1566       C  0.71860878  0.89290149  0.96185814     0.09000
C1567       C  0.68478778  0.90730648  0.52681794     0.10000
S1568       S  0.63633074  0.85305298  0.50728553    -0.24700
H1569       H  0.66112365  0.83534486  0.96220775     0.20300
S1570       S  0.75103309  0.90927780  0.94578766    -0.30400
H1571       H  0.72699577  0.92534050  0.99109259     0.10600
C1572       C  0.68503844  0.89855391  0.55774998     0.03800
C1573       C  0.67947454  0.90995483  0.58285453    -0.12700
C1574       C  0.67361376  0.93007919  0.57793014    -0.08300
C1575       C  0.67414340  0.93927424  0.54672176     0.07300
C1576       C  0.68010521  0.92808257  0.52172735    -0.13400
S1577       S  0.69245474  0.87276887  0.56525539    -0.30300
H1578       H  0.67946233  0.90294378  0.60650947     0.11500
S1579       S  0.66562021  0.96381065  0.53667590    -0.27400
H1580       H  0.67618809  0.93238788  0.99773682     0.08700
H1581       H  0.74223392  0.90071829  0.91537161     0.27200
H1582       H  0.69036164  0.87217904  0.59811338     0.22000
H1583       H  0.64272458  0.95212401  0.55500280     0.27300
H1584       H  0.63576315  0.87595968  0.51373897     0.16100
C1585       C  0.71288663  0.87755308  0.83525121    -0.11200
C1586       C  0.68831368  0.87562499  0.83445805     0.15400
C1587       C  0.67007926  0.86117147  0.85847711     0.02300
C1588       C  0.67721028  0.85004431  0.88323663    -0.15500
C1589       C  0.70208588  0.85265099  0.88461192    -0.10300
C1590       C  0.72005086  0.86653111  0.86009550     0.09000
C1591       C  0.68271354  0.88967418  0.80892790     0.10000
S1592       S  0.63756609  0.85648486  0.85917569    -0.24700
H1593       H  0.66322529  0.83920523  0.90167365     0.20300
S1594       S  0.75289058  0.87230010  0.85991776    -0.30400
H1595       H  0.72696302  0.88859500  0.81692407     0.10600
C1596       C  0.68240531  0.91292493  0.81433455     0.03800
C1597       C  0.67646493  0.92522134  0.78962672    -0.12700
C1598       C  0.67068943  0.91485950  0.75925039    -0.08300
C1599       C  0.67152081  0.89157596  0.75406852     0.07300
C1600       C  0.67775368  0.87958639  0.77872630    -0.13400
S1601       S  0.68998888  0.92716663  0.85268940    -0.30300
H1602       H  0.67609930  0.94294608  0.79422907     0.11500
S1603       S  0.66495671  0.87585757  0.71682397    -0.27400
H1604       H  0.67822324  0.86182573  0.77448008     0.08700
H1605       H  0.75608854  0.87435595  0.89251189     0.27200
H1606       H  0.68689590  0.94874624  0.84523033     0.22000
H1607       H  0.63877630  0.86978926  0.71703679     0.27300
H1608       H  0.63506105  0.85850578  0.82661783     0.16100
C1609       C  0.75940112  0.08881058  0.70754899    -0.11200
C1610       C  0.77722465  0.09553787  0.68275229     0.15400
C1611       C  0.77009436  0.07892245  0.65679716     0.02300
C1612       C  0.74586110  0.05586149  0.65655716    -0.15500
C1613       C  0.72793800  0.04884026  0.68140591    -0.10300
C1614       C  0.73480707  0.06599895  0.70696658     0.09000
C1615       C  0.80325204  0.11968994  0.68423399     0.10000
S1616       S  0.79112710  0.08592253  0.62320915    -0.24700
H1617       H  0.74103407  0.04318676  0.63668847     0.20300
S1618       S  0.71278765  0.06069729  0.73885625    -0.30400
H1619       H  0.76456299  0.10163170  0.72731553     0.10600
C1620       C  0.80649574  0.14458670  0.67718766     0.03800
C1621       C  0.83165353  0.16582568  0.67111648    -0.12700
C1622       C  0.85361174  0.16262622  0.67185747    -0.08300
C1623       C  0.85045635  0.13844056  0.68267745     0.07300
C1624       C  0.82543053  0.11724790  0.68852518    -0.13400
S1625       S  0.77843192  0.14857658  0.67182436    -0.30300
H1626       H  0.83376857  0.18398057  0.66185848     0.11500
S1627       S  0.87755098  0.13272090  0.68538742    -0.27400
H1628       H  0.82311939  0.09827407  0.69437477     0.08700
H1629       H  0.69066659  0.05197653  0.71971124     0.27200
H1630       H  0.79231494  0.17588178  0.66745749     0.22000
H1631       H  0.89619711  0.15901130  0.69025818     0.27300
H1632       H  0.80279672  0.11324091  0.62399130     0.16100
C1633       C  0.93932886  0.24776290  0.71098611    -0.11200
C1634       C  0.92481641  0.25716178  0.72608409     0.10600
C1635       C  0.89870049  0.24790393  0.71661173     0.02300
C1636       C  0.88799245  0.22977044  0.69234615    -0.15500
C1637       C  0.90280867  0.22085461  0.67685631    -0.10300
C1638       C  0.92864943  0.22965055  0.68696454     0.09000
C1639       C  0.93804901  0.27699240  0.75089633     0.10000
S1640       S  0.87821354  0.25891304  0.73373059    -0.24700
H1641       H  0.86830962  0.22337439  0.68466166     0.20300
S1642       S  0.94920696  0.21849991  0.67041956    -0.30400
H1643       H  0.95924963  0.25454403  0.71815570     0.10600
C1644       C  0.93223711  0.27100565  0.78305519     0.03800
C1645       C  0.94601348  0.29031764  0.80543512    -0.12700
C1646       C  0.96606231  0.31560561  0.79664908    -0.08300
C1647       C  0.97207166  0.32119905  0.76419507     0.07300
C1648       C  0.95801055  0.30203969  0.74198094    -0.13400
S1649       S  0.90777210  0.23852892  0.79568773    -0.30300
H1650       H  0.94121937  0.28557717  0.83002089     0.11500
S1651       S  0.99658372  0.35265220  0.74912030    -0.27400
H1652       H  0.96274600  0.30670027  0.71732566     0.08700
H1653       H  0.92915195  0.19455666  0.65969522     0.27200
H1654       H  0.90966073  0.24334349  0.82799309     0.22000
H1655       H  0.01702580  0.35071546  0.76348807     0.27300
H1656       H  0.89832318  0.28330669  0.74337054     0.16100
C1657       C  0.92570929  0.27549885  0.57782451    -0.11200
C1658       C  0.94804774  0.27841229  0.56281920     0.15400
C1659       C  0.95818285  0.26226819  0.57233420     0.02300
C1660       C  0.94421535  0.24177390  0.59389707    -0.15500
C1661       C  0.92059061  0.23732843  0.60690910    -0.10300
C1662       C  0.91172620  0.25501117  0.59953203     0.09000
C1663       C  0.95810332  0.29584838  0.53465590     0.10000
S1664       S  0.98771457  0.26558649  0.55600501    -0.24700
H1665       H  0.95099937  0.22814435  0.59906837     0.20300
S1666       S  0.88159119  0.25124014  0.61449830    -0.30400
H1667       H  0.91800449  0.28803868  0.57078688     0.10600
C1668       C  0.95624789  0.28824038  0.00761660     0.03800
C1669       C  0.96495999  0.30416858  0.98041244    -0.12700
C1670       C  0.97415255  0.33108418  0.98161488    -0.08300
C1671       C  0.97425375  0.34210814  0.01079478     0.07300
C1672       C  0.97261399  0.32289285  0.53831901    -0.13400
S1673       S  0.93288245  0.25086604  0.49869119    -0.30300
H1674       H  0.96478935  0.29569183  0.95812892     0.11500
S1675       S  0.98356260  0.37597043  0.01473032    -0.27400
H1676       H  0.97677894  0.33070577  0.56170613     0.08700
H1677       H  0.86731334  0.22383894  0.61448320     0.27200
H1678       H  0.94633374  0.25304090  0.97239050     0.22000
H1679       H  0.97263661  0.37794690  0.98614108     0.27300
H1680       H  0.99939509  0.29236931  0.54843775     0.16100
C1681       C  0.31440626  0.93239401  0.91625237    -0.11200
C1682       C  0.33547379  0.92919384  0.92513627     0.15400
C1683       C  0.33156595  0.90359301  0.92806957     0.02300
C1684       C  0.30804191  0.88235167  0.91796269    -0.15500
C1685       C  0.28824985  0.88606576  0.90505867    -0.10300
C1686       C  0.29085022  0.91114346  0.90652268     0.09000
C1687       C  0.36182959  0.95291076  0.92652177     0.10000
S1688       S  0.35670009  0.89711059  0.94168620    -0.24700
H1689       H  0.30636838  0.86326067  0.91730956     0.20300
S1690       S  0.26570757  0.91763641  0.89293107    -0.30400
H1691       H  0.31694758  0.95187698  0.91468299     0.10600
C1692       C  0.38021305  0.95910465  0.90224742     0.03800
C1693       C  0.40419328  0.98254914  0.90298384    -0.12700
C1694       C  0.41047067  0.00034368  0.92737527    -0.08300
C1695       C  0.39190260  0.99392365  0.95174535     0.07300
C1696       C  0.36784468  0.97054294  0.95086392    -0.13400
S1697       S  0.37264180  0.93779757  0.86932756    -0.30300
H1698       H  0.41809878  0.98715184  0.88418096     0.11500
S1699       S  0.39687633  0.01547632  0.98339769    -0.27400
H1700       H  0.35357322  0.96613645  0.96919721     0.08700
H1701       H  0.24522975  0.89164324  0.89562401     0.27200
H1702       H  0.39637099  0.95273390  0.85312323     0.22000
H1703       H  0.41716468  0.01249205  0.99635442     0.27300
H1704       H  0.37048698  0.91999843  0.95896760     0.16100
C1705       C  0.23190839  0.78821380  0.94540695    -0.11200
C1706       C  0.21268937  0.79141459  0.96039826     0.15400
C1707       C  0.20925006  0.81255973  0.95093920     0.02300
C1708       C  0.22488912  0.82977091  0.92686215    -0.15500
C1709       C  0.24352349  0.82606521  0.91121337    -0.10300
C1710       C  0.24718300  0.80512964  0.92096316     0.09000
C1711       C  0.19679399  0.77248782  0.98586690     0.10000
S1712       S  0.18442276  0.81787722  0.96754419    -0.24700
H1713       H  0.22157795  0.84541757  0.91906260     0.20300
S1714       S  0.27084903  0.79878472  0.90317272    -0.30400
H1715       H  0.23489437  0.77223293  0.95269989     0.10600
C1716       C  0.17891982  0.74611712  0.97954823     0.03800
C1717       C  0.16834938  0.72897787  0.50626867    -0.12700
C1718       C  0.17132448  0.73730990  0.53744590    -0.08300
C1719       C  0.18755603  0.76427038  0.54323432     0.07300
C1720       C  0.20135331  0.78171719  0.51839388    -0.13400
S1721       S  0.17340292  0.73478150  0.93975012    -0.30300
H1722       H  0.15610868  0.70843454  0.50152983     0.11500
S1723       S  0.19081200  0.77784642  0.58147918    -0.27400
H1724       H  0.21399044  0.80223252  0.52310498     0.08700
H1725       H  0.28735361  0.82441752  0.89233595     0.27200
H1726       H  0.15345071  0.70911019  0.94662766     0.22000
H1727       H  0.16481048  0.76068552  0.59056784     0.27300
H1728       H  0.16624793  0.79139320  0.97350728     0.16100
C1729       C  0.22553806  0.77401898  0.80392829    -0.11200
C1730       C  0.19869738  0.76462106  0.80431619     0.15400
C1731       C  0.18819511  0.77430335  0.82645170     0.02300
C1732       C  0.20514325  0.79495269  0.84558997    -0.15500
C1733       C  0.23229561  0.80622750  0.84269662    -0.10300
C1734       C  0.24247614  0.79486629  0.82237833     0.09000
C1735       C  0.18365421  0.74836447  0.77766896     0.10000
S1736       S  0.15379065  0.76291675  0.82927304    -0.24700
H1737       H  0.19720810  0.80373924  0.86077347     0.20300
S1738       S  0.27690187  0.80740617  0.81591341    -0.30400
H1739       H  0.23359217  0.76648624  0.78706142     0.10600
C1740       C  0.18288199  0.76026853  0.74895107     0.03800
C1741       C  0.17345551  0.74514625  0.72203728    -0.12700
C1742       C  0.16453013  0.71826254  0.72329326    -0.08300
C1743       C  0.16471821  0.70627279  0.75236933     0.07300
C1744       C  0.17423905  0.72143508  0.77916281    -0.13400
S1745       S  0.19488660  0.79498986  0.74640910    -0.30300
H1746       H  0.17309657  0.75426648  0.69988271     0.11500
S1747       S  0.15484331  0.67212848  0.75646785    -0.27400
H1748       H  0.17542650  0.71240720  0.80103713     0.08700
H1749       H  0.28691378  0.82665537  0.83864063     0.27200
H1750       H  0.18984450  0.79616241  0.71433500     0.22000
H1751       H  0.16519391  0.67069362  0.72749126     0.27300
H1752       H  0.14523470  0.73852031  0.81578319     0.16100
C1753       C  0.41620051  0.27144261  0.59483565    -0.11200
C1754       C  0.44071065  0.29426447  0.59423927     0.15400
C1755       C  0.46272854  0.29252204  0.60382673     0.02300
C1756       C  0.45931372  0.26917781  0.61747632    -0.15500
C1757       C  0.43443232  0.24705726  0.62084362    -0.10300
C1758       C  0.41299297  0.24792331  0.60750864     0.09000
C1759       C  0.44187803  0.31995647  0.58956795     0.10000
S1760       S  0.49542056  0.32001779  0.60157142    -0.24700
H1761       H  0.47591323  0.26910102  0.62816396     0.20300
S1762       S  0.38053523  0.22027333  0.60970964    -0.30400
H1763       H  0.39912499  0.27235923  0.58749658     0.10600
C1764       C  0.43351515  0.32693603  0.56184896     0.03800
C1765       C  0.43290484  0.35047949  0.56023790    -0.12700
C1766       C  0.44093286  0.36768388  0.58560768    -0.08300
C1767       C  0.45054275  0.36095806  0.61281316     0.07300
C1768       C  0.45021848  0.33714090  0.61464891    -0.13400
S1769       S  0.42417308  0.30616246  0.52826996    -0.30300
H1770       H  0.42594523  0.35536807  0.53908971     0.11500
S1771       S  0.46436412  0.38185093  0.64595380    -0.27400
H1772       H  0.45673784  0.33196182  0.63601503     0.08700
H1773       H  0.38897777  0.20211431  0.60614070     0.27200
H1774       H  0.41989164  0.32258605  0.50775744     0.22000
H1775       H  0.48139454  0.40376759  0.62737884     0.27300
H1776       H  0.49053750  0.33303504  0.57676167     0.16100
C1777       C  0.41980639  0.14790404  0.74083417    -0.11200
C1778       C  0.44409211  0.14941466  0.73875222     0.15400
C1779       C  0.46041668  0.16288475  0.71274324     0.02300
C1780       C  0.45348730  0.17706081  0.69173357    -0.15500
C1781       C  0.43019625  0.17753960  0.69560776    -0.10300
C1782       C  0.41254163  0.16143158  0.71953284     0.09000
C1783       C  0.45253927  0.13907020  0.76584277     0.10000
S1784       S  0.49087990  0.16381260  0.70605321    -0.24700
H1785       H  0.46718718  0.18911652  0.67355634     0.20300
S1786       S  0.38089579  0.15820786  0.72556181    -0.30400
H1787       H  0.40684567  0.13706315  0.76019904     0.10600
C1788       C  0.47170974  0.15604491  0.78690076     0.03800
C1789       C  0.47755487  0.14573300  0.81373719    -0.12700
C1790       C  0.46441674  0.11872460  0.82057212    -0.08300
C1791       C  0.44473014  0.10182821  0.79972225     0.07300
C1792       C  0.43923421  0.11212834  0.77263018    -0.13400
S1793       S  0.48794585  0.19102145  0.78047655    -0.30300
H1794       H  0.49256058  0.15885177  0.82950695     0.11500
S1795       S  0.42479907  0.06719063  0.80713561    -0.27400
H1796       H  0.42391378  0.09907658  0.75709011     0.08700
H1797       H  0.37811348  0.16612048  0.69526201     0.27200
H1798       H  0.50432600  0.19787513  0.80676834     0.22000
H1799       H  0.42249653  0.06940805  0.83957169     0.27300
H1800       H  0.48426755  0.14045883  0.72257384     0.16100
C1801       C  0.45407352  0.16215713  0.01963823    -0.11200
C1802       C  0.45862111  0.15948813  0.55034326     0.15400
C1803       C  0.46530657  0.14016698  0.55762516     0.02300
C1804       C  0.46606297  0.12324604  0.03457055    -0.15500
C1805       C  0.46565161  0.12996545  0.00273959    -0.10300
C1806       C  0.45882607  0.14934937  0.99544477     0.09000
C1807       C  0.45177550  0.17245158  0.57516452     0.10000
S1808       S  0.46792419  0.13077665  0.59743088    -0.24700
H1809       H  0.47587408  0.11316899  0.53966813     0.20300
S1810       S  0.45467196  0.15804847  0.95594656    -0.30400
H1811       H  0.44899895  0.17698046  0.01374635     0.10600
C1812       C  0.46871435  0.19864644  0.58322291     0.03800
C1813       C  0.46174866  0.20974383  0.60751473    -0.12700
C1814       C  0.43804439  0.19534728  0.62384826    -0.08300
C1815       C  0.42087116  0.16924662  0.61518980     0.07300
C1816       C  0.42802229  0.15808702  0.59131467    -0.13400
S1817       S  0.49969454  0.21760417  0.56343824    -0.30300
H1818       H  0.47508096  0.22950089  0.61442720     0.11500
S1819       S  0.38931583  0.14920236  0.63304776    -0.27400
H1820       H  0.41483756  0.13802894  0.58505317     0.08700
H1821       H  0.44126270  0.13208763  0.94583421     0.27200
H1822       H  0.50773955  0.24094141  0.57942686     0.22000
H1823       H  0.38533765  0.16985282  0.64082354     0.27300
H1824       H  0.47583707  0.15516652  0.61064268     0.16100
loop_ 
_geom_bond_atom_site_label_1 
_geom_bond_atom_site_label_2 
_geom_bond_distance 
_geom_bond_site_symmetry_2 
_ccdc_geom_bond_type 
N1            C5   1.366       .  A
N1            C2   1.366       .  A
N1          C902   1.446       .  S
C2            C3   1.380       .  A
C2          C845   1.487       .  S
C3            C4   1.368       .  A
C3            H6   1.082       .  S
C4            C5   1.383       .  A
C4            H7   1.082       .  S
C5          C869   1.491       .  S
N8           C12   1.362       .  A
N8            C9   1.365       .  A
N8          C797   1.448       .  S
C9           C10   1.382       .  A
C9          C773   1.481       .  S
C10          C11   1.367       .  A
C10          H13   1.083       .  S
C11          C12   1.379       .  A
C11          H14   1.082       .  S
C12         C821   1.479       .  S
N15          C19   1.359       .  A
N15          C16   1.362       .  A
N15         C725   1.443       .  S
C16          C17   1.384       .  A
C16         C710   1.483       .  S
C17          C18   1.370       .  A
C17          H20   1.083       .  S
C18          C19   1.379       .  A
C18          H21   1.082       .  S
C19         C749   1.477       .  S
N22          C26   1.364       .  A
N22          C23   1.367       .  A
N22         C677   1.448       .  S
C23          C24   1.385       .  A
C23         C638   1.492       .  S
C24          C25   1.369       .  A
C24          H27   1.082       .  S
C25          C26   1.378       .  A
C25          H28   1.082       .  S
C26         C653   1.483       .  S
N29          C33   1.361       .  A
N29          C30   1.362       .  A
N29         C590   1.446       .  S
C30          C31   1.381       .  A
C30         C566   1.477       .  S
C31          C32   1.366       .  A
C31          H34   1.082       .  S
C32          C33   1.381       .  A
C32          H35   1.082       .  S
C33         C605   1.478       .  S
N36          C40   1.357       .  A
N36          C37   1.360       .  A
N36         C509   1.442       .  S
C37          C38   1.382       .  A
C37         C485   1.478       .  S
C38          C39   1.369       .  A
C38          H41   1.082       .  S
C39          C40   1.379       .  A
C39          H42   1.082       .  S
C40         C533   1.473       .  S
O43          C59   1.280       .  A
O43         Zn49   2.049       .  S
C44         C758   1.489       .  S
C44          O60   1.280       .  A
C44          O57   1.275   1_655  A
O45          C58   1.272       .  A
O45         Cd52   2.057       .  S
O46          C64   1.276       .  A
O46         Cd55   2.079       .  S
O47          C61   1.279       .  A
O47         Cd51   2.098       .  S
O48          C59   1.278   1_455  A
O48         Cd51   2.092       .  S
Zn49         O60   2.046       .  S
Zn49         O62   2.040       .  S
Zn49         O54   1.952   1_655  S
O50          C61   1.275       .  A
O50         Cd55   2.067       .  S
Cd51         O53   2.095       .  S
Cd51         O54   2.001       .  S
Cd52         O56   2.056   1_655  S
Cd52         O65   2.053   1_655  S
Cd52         O54   1.992   1_655  S
O53          C63   1.277       .  A
O54         Cd55   1.997       .  S
Cd55         O57   2.065       .  S
O56          C63   1.274       .  A
C58         C413   1.482       .  S
C58          O62   1.276       .  A
C59         C734   1.506       .  S
C61         C494   1.492       .  S
C63         C461   1.487       .  S
C64         C437   1.486       .  S
C64          O65   1.271       .  A
O66          C82   1.278       .  A
O66         Zn72   2.037       .  S
C67         C830   1.488       .  S
C67          O83   1.279       .  A
C67          O80   1.274       .  A
O68          C81   1.272       .  A
O68         Cd75   2.060       .  S
O69          C87   1.277       .  A
O69         Cd78   2.086       .  S
O70          C84   1.278       .  A
O70         Cd74   2.091       .  S
O71          C82   1.279       .  A
O71         Cd74   2.089       .  S
Zn72         O83   2.037       .  S
Zn72         O85   2.027       .  S
Zn72         O77   1.950       .  S
O73          C84   1.277       .  A
O73         Cd78   2.080       .  S
Cd74         O76   2.084       .  S
Cd74         O77   2.004       .  S
Cd75         O79   2.058       .  S
Cd75         O88   2.063       .  S
Cd75         O77   1.996       .  S
O76          C86   1.276       .  A
O77         Cd78   2.001       .  S
Cd78         O80   2.067       .  S
O79          C86   1.274       .  A
C81         C389   1.487       .  S
C81          O85   1.275       .  A
C82         C806   1.492       .  S
C84         C557   1.497       .  S
C86         C446   1.480       .  S
C87         C470   1.487       .  S
C87          O88   1.273       .  A
O89         C105   1.279       .  A
O89         Zn95   2.042       .  S
C90         C893   1.503       .  S
C90         O106   1.278       .  A
C90         O103   1.279       .  A
O91         C104   1.275       .  A
O91         Cd98   2.076       .  S
O92         C110   1.278       .  A
O92        Cd101   2.096       .  S
O93         C107   1.278       .  A
O93         Cd97   2.078       .  S
O94         C105   1.277       .  A
O94         Cd97   2.087       .  S
Zn95        O106   2.049       .  S
Zn95        O108   2.022       .  S
Zn95        O100   1.947       .  S
O96         C107   1.276       .  A
O96        Cd101   2.090       .  S
Cd97         O99   2.091       .  S
Cd97        O100   2.005       .  S
Cd98        O102   2.068       .  S
Cd98        O111   2.058       .  S
Cd98        O100   1.999       .  S
O99         C109   1.276       .  A
O100       Cd101   2.009       .  S
Cd101       O103   2.093       .  S
O102        C109   1.274       .  A
C104        C326   1.484       .  S
C104        O108   1.274       .  A
C105        C878   1.495       .  S
C107        C782   1.500       .  S
C109        C365   1.485       .  S
C110        C350   1.491       .  S
C110        O111   1.275       .  A
O112        C128   1.277       .  A
O112       Zn118   2.028       .  S
C113        C686   1.509       .  S
C113        O129   1.276       .  A
C113        O126   1.281       .  A
O114        C127   1.273       .  A
O114       Cd121   2.068       .  S
O115        C133   1.280       .  A
O115       Cd124   2.099       .  S
O116        C130   1.279       .  A
O116       Cd120   2.087   1_545  S
O117        C128   1.278       .  A
O117       Cd120   2.090       .  S
Zn118       O129   2.036       .  S
Zn118       O131   2.030       .  S
Zn118       O123   1.951       .  S
O119        C130   1.280       .  A
O119       Cd124   2.104   1_545  S
Cd120       O122   2.096       .  S
Cd120       O123   2.010       .  S
Cd121       O125   2.064       .  S
Cd121       O134   2.056       .  S
Cd121       O123   2.002       .  S
O122        C132   1.277       .  A
O123       Cd124   2.015       .  S
Cd124       O126   2.106       .  S
O125        C132   1.273       .  A
C127        C293   1.486       .  S
C127        O131   1.274       .  A
C128        C662   1.493       .  S
C130        C701   1.499       .  S
C132        C341   1.483   1_565  S
C133        C374   1.484       .  S
C133        O134   1.273       .  A
C135        N136   1.362       .  A
C135        N140   1.358       .  A
C135        C269   1.488       .  S
N136        C137   1.361       .  A
C137        N138   1.359       .  A
C137        C317   1.490       .  S
N138        C139   1.356       .  A
C139        N140   1.358       .  A
C139        C422   1.487       .  S
C141        N142   1.361       .  A
C141        N146   1.360       .  A
C141        C245   1.489       .  S
N142        C143   1.359       .  A
C143        N144   1.357       .  A
C143        C398   1.479       .  S
N144        C145   1.357       .  A
C145        N146   1.360       .  A
C145        C302   1.485       .  S
O147        C163   1.278       .  A
O147       Zn153   2.036       .  S
C148        C542   1.487       .  S
C148        O164   1.278       .  A
C148        O161   1.275       .  A
O149        C162   1.273       .  A
O149       Cd156   2.071       .  S
O150        C168   1.276       .  A
O150       Cd159   2.078       .  S
O151        C165   1.280       .  A
O151       Cd155   2.106       .  S
O152        C163   1.278       .  A
O152       Cd155   2.089       .  S
Zn153       O164   2.033       .  S
Zn153       O166   2.023       .  S
Zn153       O158   1.944       .  S
O154        C165   1.277       .  A
O154       Cd159   2.083       .  S
Cd155       O157   2.082       .  S
Cd155       O158   2.007       .  S
Cd156       O160   2.052       .  S
Cd156       O169   2.051       .  S
Cd156       O158   2.002       .  S
O157        C167   1.277       .  A
O158       Cd159   1.999       .  S
Cd159       O161   2.068       .  S
O160        C167   1.273       .  A
C162        C254   1.486       .  S
C162        O166   1.273       .  A
C163        C518   1.496   1_554  S
C165        C854   1.501       .  S
C167        C230   1.476   1_554  S
C168        C197   1.477       .  S
C168        O169   1.272       .  A
O170        C186   1.276       .  A
O170       Zn176   2.026       .  S
C171        C614   1.474       .  S
C171        O187   1.277       .  A
C171        O184   1.274       .  A
O172        C185   1.274       .  A
O172       Cd179   2.070       .  S
O173        C191   1.273       .  A
O173       Cd182   2.068       .  S
O174        C188   1.281       .  A
O174       Cd178   2.115       .  S
O175        C186   1.281       .  A
O175       Cd178   2.104       .  S
Zn176       O187   2.028       .  S
Zn176       O189   2.020       .  S
Zn176       O181   1.939       .  S
O177        C188   1.275       .  A
O177       Cd182   2.067       .  S
Cd178       O180   2.090       .  S
Cd178       O181   2.007       .  S
Cd179       O183   2.048       .  S
Cd179       O192   2.067       .  S
Cd179       O181   1.996       .  S
O180        C190   1.277       .  A
O181       Cd182   1.987       .  S
Cd182       O184   2.062       .  S
O183        C190   1.274       .  A
C185        C278   1.485       .  S
C185        O189   1.273       .  A
C186        C581   1.498       .  S
C188        C629   1.493       .  S
C190        C206   1.487       .  S
C191        C221   1.485       .  S
C191        O192   1.274       .  A
C193        C194   1.399       .  A
C193        C198   1.397       .  A
C193        H203   1.084       .  S
C194        C195   1.413       .  A
C194        C199   1.476       .  S
C195        C196   1.400       .  A
C195        S200   1.805       .  S
C196        C197   1.404       .  A
C196        H201   1.084       .  S
C197        C198   1.416       .  A
C198        S202   1.804       .  S
C199        C204   1.406       .  A
C199        C208   1.401       .  A
S200        H216   1.405       .  S
S202        H213   1.407       .  S
C204        C205   1.399       .  A
C204        S209   1.808       .  S
C205        C206   1.409       .  A
C205        H210   1.082       .  S
C206        C207   1.418       .  A
C207        C208   1.401       .  A
C207        S211   1.799       .  S
C208        H212   1.084       .  S
S209        H214   1.407       .  S
S211        H215   1.407       .  S
C217        C218   1.400       .  A
C217        C222   1.398       .  A
C217       H1139   1.084       .  S
C218        C219   1.410       .  A
C218        C223   1.476       .  S
C219        C220   1.400       .  A
C219        S224   1.805       .  S
C220        C221   1.408       .  A
C220        H225   1.084       .  S
C221        C222   1.417       .  A
C222        S226   1.802       .  S
C223        C232   1.401       .  A
C223       C1140   1.409       .  A
S224        H240   1.405       .  S
S226        H237   1.406       .  S
H227       C1129   1.084       .  S
C228        C229   1.403       .  A
C228       C1135   1.409       .  A
C228        S233   1.807       .  S
C229        C230   1.405       .  A
C229        H234   1.083       .  S
C230        C231   1.414       .  A
C231       C1144   1.397       .  A
C231        S235   1.804       .  S
C232       C1143   1.397       .  A
C232        H236   1.084       .  S
S233        H238   1.407       .  S
S235        H239   1.407       .  S
C241        C242   1.401       .  A
C241        C246   1.401       .  A
C241        H251   1.084       .  S
C242        C243   1.411       .  A
C242        C247   1.481       .  S
C243        C244   1.401       .  A
C243        S248   1.805       .  S
C244        C245   1.407       .  A
C244        H249   1.084       .  S
C245        C246   1.418       .  A
C246        S250   1.803       .  S
C247        C252   1.409       .  A
C247        C256   1.399       .  A
S248        H264   1.404       .  S
S250        H261   1.408       .  S
C252        C253   1.406       .  A
C252        S257   1.806       .  S
C253        C254   1.408       .  A
C253        H258   1.083       .  S
C254        C255   1.418       .  A
C255        C256   1.399       .  A
C255        S259   1.804       .  S
C256        H260   1.084       .  S
S257        H262   1.407       .  S
S259        H263   1.408       .  S
C265        C266   1.400       .  A
C265        C270   1.401       .  A
C265        H275   1.084       .  S
C266        C267   1.411       .  A
C266        C271   1.481       .  S
C267        C268   1.400       .  A
C267        S272   1.804       .  S
C268        C269   1.406       .  A
C268        H273   1.084       .  S
C269        C270   1.420       .  A
C270        S274   1.803       .  S
C271        C276   1.408       .  A
C271        C280   1.401       .  A
S272        H288   1.406       .  S
S274        H285   1.407       .  S
C276        C277   1.404       .  A
C276        S281   1.806       .  S
C277        C278   1.408       .  A
C277        H282   1.083       .  S
C278        C279   1.416       .  A
C279        C280   1.400       .  A
C279        S283   1.803       .  S
C280        H284   1.084       .  S
S281        H286   1.407       .  S
S283        H287   1.407       .  S
C289        C290   1.402       .  A
C289        C294   1.400       .  A
C289        H299   1.084       .  S
C290        C291   1.412       .  A
C290        C295   1.484       .  S
C291        C292   1.401       .  A
C291        S296   1.804       .  S
C292        C293   1.407       .  A
C292        H297   1.084       .  S
C293        C294   1.417       .  A
C294        S298   1.802       .  S
C295        C300   1.410       .  A
C295        C304   1.401       .  A
S296        H312   1.406       .  S
S298        H309   1.407       .  S
C300        C301   1.404       .  A
C300        S305   1.807       .  S
C301        C302   1.406       .  A
C301        H306   1.083       .  S
C302        C303   1.418       .  A
C303        C304   1.400       .  A
C303        S307   1.803       .  S
C304        H308   1.084       .  S
S305        H310   1.407       .  S
S307        H311   1.407       .  S
C313        C314   1.402       .  A
C313        C318   1.403       .  A
C313        H323   1.084       .  S
C314        C315   1.409       .  A
C314        C319   1.482       .  S
C315        C316   1.399       .  A
C315        S320   1.804       .  S
C316        C317   1.408       .  A
C316        H321   1.084       .  S
C317        C318   1.419       .  A
C318        S322   1.802       .  S
C319        C324   1.408       .  A
C319        C328   1.402       .  A
S320        H336   1.405       .  S
S322        H333   1.407       .  S
C324        C325   1.403       .  A
C324        S329   1.806       .  S
C325        C326   1.407       .  A
C325        H330   1.083       .  S
C326        C327   1.416       .  A
C327        C328   1.401       .  A
C327        S331   1.803       .  S
C328        H332   1.084       .  S
S329        H334   1.407       .  S
S331        H335   1.407       .  S
C337        C338   1.402       .  A
C337        C342   1.401   1_545  A
C337        H347   1.084   1_545  S
C338        C339   1.414       .  A
C338        C343   1.485       .  S
C339        C340   1.404       .  A
C339        S344   1.804       .  S
C340        C341   1.405       .  A
C340        H345   1.084       .  S
C341        C342   1.415   1_545  A
C342        S346   1.804       .  S
C343        C352   1.404       .  A
C343       C1260   1.406       .  A
S344        H360   1.405       .  S
S346        H357   1.407       .  S
C348        C349   1.401       .  A
C348       C1255   1.406       .  A
C348        S353   1.808       .  S
C349        C350   1.410       .  A
C349        H354   1.082       .  S
C350        C351   1.417       .  A
C351       C1264   1.404       .  A
C351       S1267   1.801       .  S
C352       C1263   1.406       .  A
C352        H356   1.084       .  S
S353        H358   1.407       .  S
S355       C1263   1.801       .  S
S355       H1271   1.407       .  S
H359       S1267   1.407       .  S
C361        C362   1.401       .  A
C361        C366   1.399       .  A
C361        H371   1.084       .  S
C362        C363   1.415       .  A
C362        C367   1.486       .  S
C363        C364   1.404       .  A
C363        S368   1.804       .  S
C364        C365   1.405       .  A
C364        H369   1.084       .  S
C365        C366   1.417       .  A
C366        S370   1.804       .  S
C367        C372   1.411       .  A
C367        C376   1.402   1_545  A
S368        H384   1.406       .  S
S370        H381   1.407       .  S
C372        C373   1.405       .  A
C372        S377   1.807       .  S
C373        C374   1.404   1_545  A
C373        H378   1.083       .  S
C374        C375   1.418       .  A
C375        C376   1.401       .  A
C375        S379   1.804       .  S
C376        H380   1.084       .  S
S377        H382   1.407       .  S
S379        H383   1.407       .  S
C385        C386   1.401       .  A
C385        C390   1.399       .  A
C385        H395   1.084       .  S
C386        C387   1.411       .  A
C386        C391   1.481       .  S
C387        C388   1.400       .  A
C387        S392   1.804       .  S
C388        C389   1.407       .  A
C388        H393   1.084       .  S
C389        C390   1.418       .  A
C390        S394   1.803       .  S
C391        C396   1.410       .  A
C391        C400   1.401       .  A
S392        H408   1.406       .  S
S394        H405   1.408       .  S
C396        C397   1.403       .  A
C396        S401   1.807       .  S
C397        C398   1.404       .  A
C397        H402   1.083       .  S
C398        C399   1.415       .  A
C399        C400   1.399       .  A
C399        S403   1.803       .  S
C400        H404   1.084       .  S
S401        H406   1.407       .  S
S403        H407   1.407       .  S
C409        C410   1.402       .  A
C409        C414   1.402       .  A
C409        H419   1.083       .  S
C410        C411   1.411       .  A
C410        C415   1.481       .  S
C411        C412   1.401       .  A
C411        S416   1.804       .  S
C412        C413   1.406       .  A
C412        H417   1.084       .  S
C413        C414   1.415       .  A
C414        S418   1.809       .  S
C415        C420   1.408       .  A
C415        C424   1.400       .  A
S416        H432   1.406       .  S
S418        H429   1.407       .  S
C420        C421   1.403       .  A
C420        S425   1.807       .  S
C421        C422   1.408       .  A
C421        H426   1.082       .  S
C422        C423   1.419       .  A
C423        C424   1.399       .  A
C423        S427   1.803       .  S
C424        H428   1.084       .  S
S425        H430   1.407       .  S
S427        H431   1.408       .  S
C433        C434   1.398       .  A
C433        C438   1.398       .  A
C433        H443   1.084       .  S
C434       C1347   1.412       .  A
C434       C1351   1.477       .  S
C435       C1346   1.413       .  A
C435       C1348   1.401       .  A
C435        S440   1.805   1_556  S
C436        C437   1.406       .  A
C436       C1347   1.400       .  A
C436        H441   1.084       .  S
C437        C438   1.421       .  A
C438        S442   1.804       .  S
C439        C444   1.408   1_556  A
C439        C448   1.402   1_556  A
C439       C1346   1.479       .  S
S440        H456   1.405       .  S
S442        H453   1.408       .  S
C444        C445   1.402       .  A
C444        S449   1.807   1_554  S
C445        C446   1.406       .  A
C445        H450   1.083       .  S
C446        C447   1.415       .  A
C447        C448   1.401       .  A
C447        S451   1.799       .  S
C448        H452   1.084       .  S
S449        H454   1.407       .  S
S451        H455   1.407       .  S
C457        C458   1.403       .  A
C457        C462   1.403       .  A
C457        H467   1.084       .  S
C458        C459   1.411       .  A
C458        C463   1.483       .  S
C459        C460   1.398       .  A
C459        S464   1.805       .  S
C460        C461   1.406       .  A
C460        H465   1.084       .  S
C461        C462   1.417       .  A
C462        S466   1.799       .  S
C463        C468   1.410       .  A
C463        C472   1.399       .  A
S464        H480   1.405       .  S
S466        H477   1.407       .  S
C468        C469   1.405       .  A
C468        S473   1.807       .  S
C469        C470   1.407       .  A
C469        H474   1.083       .  S
C470        C471   1.420       .  A
C471        C472   1.399       .  A
C471        S475   1.803       .  S
C472        H476   1.084       .  S
S473        H478   1.407       .  S
S475        H479   1.407       .  S
C481        C482   1.402       .  A
C481        C486   1.399       .  A
C481        H491   1.084       .  S
C482        C483   1.414       .  A
C482        C487   1.489       .  S
C483        C484   1.405       .  A
C483        S488   1.802       .  S
C484        C485   1.403       .  A
C484        H489   1.083       .  S
C485        C486   1.413       .  A
C486        S490   1.805       .  S
C487        C492   1.408       .  A
C487        C496   1.404       .  A
S488        H504   1.406       .  S
S490        H501   1.404       .  S
C492        C493   1.406       .  A
C492        S497   1.806       .  S
C493        C494   1.410       .  A
C493        H498   1.082       .  S
C494        C495   1.416       .  A
C495        C496   1.402       .  A
C495        S499   1.802       .  S
C496        H500   1.084       .  S
S497        H502   1.407       .  S
S499        H503   1.407       .  S
C505        C506   1.403       .  A
C505        C510   1.403       .  A
C505        H515   1.084       .  S
C506        C507   1.416       .  A
C506        C511   1.488       .  S
C507        C508   1.404       .  A
C507        S512   1.806       .  S
C508        C509   1.402       .  A
C508        H513   1.082       .  S
C509        C510   1.412       .  A
C510        S514   1.803       .  S
C511        C516   1.409       .  A
C511        C520   1.401       .  A
S512       H1440   1.403       .  S
S514        H525   1.403       .  S
C516       C1429   1.408       .  A
C516        S521   1.805       .  S
C517        C518   1.410   1_554  A
C517       C1428   1.408   1_554  A
C517        H522   1.082       .  S
C518        C519   1.421       .  A
C519       C1432   1.402       .  A
C519        S523   1.803       .  S
C520       C1431   1.404       .  A
C520        H524   1.084       .  S
S521       H1438   1.406       .  S
S523        H527   1.408       .  S
H526       S1433   1.407   1_554  S
H528       S1424   1.405       .  S
C529        C530   1.404       .  A
C529        C534   1.403       .  A
C529        H539   1.083       .  S
C530        C531   1.412       .  A
C530        C535   1.483       .  S
C531        C532   1.399       .  A
C531        S536   1.803       .  S
C532        C533   1.402       .  A
C532        H537   1.083       .  S
C533        C534   1.408       .  A
C534        S538   1.806       .  S
C535        C540   1.412       .  A
C535        C544   1.400       .  A
S536        H552   1.406       .  S
S538        H549   1.407       .  S
C540        C541   1.403       .  A
C540        S545   1.808       .  S
C541        C542   1.405       .  A
C541        H546   1.083       .  S
C542        C543   1.421       .  A
C543        C544   1.401       .  A
C543        S547   1.803       .  S
C544        H548   1.084       .  S
S545        H550   1.407       .  S
S547        H551   1.408       .  S
C553        C554   1.405   1_455  A
C553        C558   1.402       .  A
C553        H563   1.084       .  S
C554        C555   1.411   1_655  A
C554        C559   1.491       .  S
C555        C556   1.403       .  A
C555        S560   1.803   1_455  S
C556        C557   1.410       .  A
C556        H561   1.083       .  S
C557        C558   1.419       .  A
C558        S562   1.802       .  S
C559        C564   1.412       .  A
C559        C568   1.402       .  A
S560        H576   1.406       .  S
S562        H573   1.408       .  S
C564        C565   1.408       .  A
C564        S569   1.805       .  S
C565        C566   1.404       .  A
C565        H570   1.082       .  S
C566        C567   1.413       .  A
C567        C568   1.399       .  A
C567        S571   1.802       .  S
C568        H572   1.083       .  S
S569        H574   1.407       .  S
S571        H575   1.403       .  S
C577        C578   1.403       .  A
C577        C582   1.405       .  A
C577        H587   1.084       .  S
C578        C579   1.414       .  A
C578        C583   1.494       .  S
C579        C580   1.405       .  A
C579        S584   1.805       .  S
C580        C581   1.408       .  A
C580        H585   1.083       .  S
C581        C582   1.420       .  A
C582        S586   1.803       .  S
C583        C588   1.413       .  A
C583        C592   1.404       .  A
S584        H600   1.406       .  S
S586        H597   1.408       .  S
C588        C589   1.409       .  A
C588        S593   1.805       .  S
C589        C590   1.403       .  A
C589        H594   1.081       .  S
C590        C591   1.411       .  A
C591        C592   1.405       .  A
C591        S595   1.803       .  S
C592        H596   1.083       .  S
S593        H598   1.407       .  S
S595        H599   1.406       .  S
C601        C602   1.399       .  A
C601        C606   1.397       .  A
C601       H1523   1.083   1_554  S
C602        C603   1.412       .  A
C602       C1519   1.479   1_554  S
C603        C604   1.404       .  A
C603        S608   1.802       .  S
C604        C605   1.404       .  A
C604        H609   1.084       .  S
C605        C606   1.412       .  A
C606        S610   1.809       .  S
C607        C612   1.411       .  A
C607        C616   1.400       .  A
C607       C1514   1.478       .  S
S608        H624   1.406       .  S
S610        H621   1.407       .  S
H611       C1513   1.083       .  S
C612        C613   1.402       .  A
C612        S617   1.807       .  S
C613        C614   1.402       .  A
C613        H618   1.083       .  S
C614        C615   1.416       .  A
C615        C616   1.398       .  A
C615        S619   1.804       .  S
C616       H1532   1.084       .  S
S617        H622   1.407       .  S
S619        H623   1.407       .  S
H620       C1528   1.084   1_554  S
C625        C626   1.403       .  A
C625        C630   1.401       .  A
C625        H635   1.084       .  S
C626        C627   1.415       .  A
C626        C631   1.494       .  S
C627        C628   1.408       .  A
C627        S632   1.802       .  S
C628        C629   1.407       .  A
C628        H633   1.084       .  S
C629        C630   1.419       .  A
C630        S634   1.804       .  S
C631        C636   1.413       .  A
C631        C640   1.399       .  A
S632        H648   1.406       .  S
S634        H645   1.407       .  S
C636        C637   1.412       .  A
C636        S641   1.804       .  S
C637        C638   1.406       .  A
C637        H642   1.082       .  S
C638        C639   1.420       .  A
C639        C640   1.399       .  A
C639        S643   1.807       .  S
C640        H644   1.084       .  S
S641        H646   1.407       .  S
S643        H647   1.401       .  S
C649        C650   1.402       .  A
C649        C654   1.403       .  A
C649        H659   1.084       .  S
C650        C651   1.414       .  A
C650       C1567   1.486       .  S
C651        C652   1.402       .  A
C651       S1568   1.804       .  S
C652        C653   1.403       .  A
C652        H657   1.084       .  S
C653        C654   1.412       .  A
C654        S658   1.796       .  S
C655        C660   1.410       .  A
C655        C664   1.401       .  A
C655       C1562   1.486   1_554  S
S656       C1563   1.804   1_554  S
S656        H672   1.405       .  S
S658        H669   1.403       .  S
C660        C661   1.405       .  A
C660        S665   1.807       .  S
C661        C662   1.408       .  A
C661        H666   1.083       .  S
C662        C663   1.421       .  A
C663        C664   1.404       .  A
C663        S667   1.802       .  S
C664       H1580   1.084   1_554  S
S665        H670   1.407       .  S
S667        H671   1.408       .  S
H668       C1576   1.084       .  S
C673        C674   1.404       .  A
C673        C678   1.405       .  A
C673        H683   1.084       .  S
C674        C675   1.414       .  A
C674        C679   1.491       .  S
C675        C676   1.403       .  A
C675        S680   1.804       .  S
C676        C677   1.404       .  A
C676        H681   1.082       .  S
C677        C678   1.416       .  A
C678        S682   1.800       .  S
C679        C684   1.409       .  A
C679        C688   1.399       .  A
S680        H696   1.405       .  S
S682        H693   1.403       .  S
C684        C685   1.409       .  A
C684        S689   1.807       .  S
C685        C686   1.413       .  A
C685        H690   1.082       .  S
C686        C687   1.426       .  A
C687        C688   1.404       .  A
C687        S691   1.800       .  S
C688        H692   1.084       .  S
S689        H694   1.406       .  S
S691        H695   1.406       .  S
C697        C698   1.403       .  A
C697        C702   1.408       .  A
C697        H707   1.084       .  S
C698        C699   1.414       .  A
C698        C703   1.492       .  S
C699        C700   1.402       .  A
C699        S704   1.805       .  S
C700        C701   1.407       .  A
C700        H705   1.084       .  S
C701        C702   1.421       .  A
C702        S706   1.801       .  S
C703        C708   1.413       .  A
C703        C712   1.402       .  A
S704        H720   1.406       .  S
S706        H717   1.407       .  S
C708        C709   1.410       .  A
C708        S713   1.804       .  S
C709        C710   1.405       .  A
C709        H714   1.083       .  S
C710        C711   1.412       .  A
C711        C712   1.401       .  A
C711        S715   1.799       .  S
C712        H716   1.084       .  S
S713        H718   1.407       .  S
S715        H719   1.405       .  S
C721        C722   1.402       .  A
C721        C726   1.401       .  A
C721        H731   1.084       .  S
C722        C723   1.417       .  A
C722        C727   1.493       .  S
C723        C724   1.407       .  A
C723        S728   1.804       .  S
C724        C725   1.403       .  A
C724        H729   1.082       .  S
C725        C726   1.416       .  A
C726        S730   1.807       .  S
C727        C732   1.409       .  A
C727        C736   1.401       .  A
S728        H744   1.405       .  S
S730        H741   1.399       .  S
C732        C733   1.410       .  A
C732        S737   1.806       .  S
C733        C734   1.413       .  A
C733        H738   1.082       .  S
C734        C735   1.423       .  A
C735        C736   1.403       .  A
C735        S739   1.801   1_655  S
C736        H740   1.084       .  S
S737        H742   1.407       .  S
S739        H743   1.408       .  S
C745        C746   1.400       .  A
C745        C750   1.399       .  A
C745        H755   1.084       .  S
C746        C747   1.412       .  A
C746        C751   1.483       .  S
C747        C748   1.403       .  A
C747        S752   1.803       .  S
C748        C749   1.404       .  A
C748        H753   1.083       .  S
C749        C750   1.415       .  A
C750        S754   1.806       .  S
C751        C760   1.400       .  A
C751       C1668   1.411       .  A
S752        H768   1.406       .  S
S754        H765   1.399       .  S
C756        C757   1.405       .  A
C756       C1663   1.411       .  A
C756       S1673   1.808       .  S
C757        C758   1.406       .  A
C757        H762   1.082       .  S
C758        C759   1.421       .  A
C759       C1672   1.401       .  A
C759        S763   1.803       .  S
C760       C1671   1.401       .  A
C760        H764   1.084       .  S
S761       C1668   1.807       .  S
S761       H1678   1.407   1_554  S
S763        H767   1.407       .  S
H766       S1673   1.407       .  S
C769        C770   1.403       .  A
C769        C774   1.405       .  A
C769        H779   1.084       .  S
C770        C771   1.411       .  A
C770        C775   1.485       .  S
C771        C772   1.398       .  A
C771        S776   1.804       .  S
C772        C773   1.406       .  A
C772        H777   1.084       .  S
C773        C774   1.414       .  A
C774        S778   1.801       .  S
C775        C780   1.408       .  A
C775        C784   1.401       .  A
S776        H792   1.405       .  S
S778        H789   1.401       .  S
C780        C781   1.401       .  A
C780        S785   1.809       .  S
C781        C782   1.409   1_565  A
C781        H786   1.082   1_565  S
C782        C783   1.424   1_545  A
C783        C784   1.407       .  A
C783        S787   1.801       .  S
C784        H788   1.084       .  S
S785        H790   1.406       .  S
S787        H791   1.408   1_565  S
C793        C794   1.404       .  A
C793        C798   1.405       .  A
C793        H803   1.084       .  S
C794        C795   1.412       .  A
C794        C799   1.489       .  S
C795        C796   1.401       .  A
C795        S800   1.804       .  S
C796        C797   1.406       .  A
C796        H801   1.083       .  S
C797        C798   1.416       .  A
C798        S802   1.799       .  S
C799        C804   1.410       .  A
C799       C1720   1.403       .  A
S800        H816   1.405       .  S
S802        H813   1.398       .  S
C804       C1717   1.407       .  A
C804        S809   1.807       .  S
C805        C806   1.408       .  A
C805       C1716   1.406   1_554  A
C805        H810   1.082   1_554  S
C806        C807   1.417       .  A
C807        C808   1.404       .  A
C807        S811   1.802       .  S
C808       C1711   1.404   1_554  A
C808        H812   1.084       .  S
S809        H814   1.407       .  S
S811        H815   1.407       .  S
C817        C818   1.401       .  A
C817        C822   1.400       .  A
C817        H827   1.084       .  S
C818        C819   1.412       .  A
C818        C823   1.483       .  S
C819        C820   1.401       .  A
C819        S824   1.803       .  S
C820        C821   1.404       .  A
C820        H825   1.084       .  S
C821        C822   1.413       .  A
C822        S826   1.799       .  S
C823        C828   1.411       .  A
C823        C832   1.400       .  A
S824        H840   1.406       .  S
S826        H837   1.406       .  S
C828        C829   1.403       .  A
C828        S833   1.808       .  S
C829        C830   1.405       .  A
C829        H834   1.083       .  S
C830        C831   1.421       .  A
C831        C832   1.402       .  A
C831        S835   1.803       .  S
C832        H836   1.084       .  S
S833        H838   1.407       .  S
S835        H839   1.408       .  S
C841        C842   1.405       .  A
C841        C846   1.402       .  A
C841        H851   1.083       .  S
C842        C843   1.418       .  A
C842        C847   1.501       .  S
C843        C844   1.407       .  A
C843        S848   1.803       .  S
C844        C845   1.404       .  A
C844        H849   1.083       .  S
C845        C846   1.413       .  A
C846        S850   1.797       .  S
C847        C852   1.414       .  A
C847        C856   1.404       .  A
S848        H864   1.407       .  S
S850        H861   1.404       .  S
C852        C853   1.412       .  A
C852        S857   1.806       .  S
C853        C854   1.410       .  A
C853        H858   1.082       .  S
C854        C855   1.420       .  A
C855        C856   1.401       .  A
C855        S859   1.803       .  S
C856        H860   1.084       .  S
S857        H862   1.407       .  S
S859        H863   1.408       .  S
C865        C866   1.399       .  A
C865        C870   1.399       .  A
C865        H875   1.084       .  S
C866        C867   1.416       .  A
C866        C871   1.491       .  S
C867        C868   1.407       .  A
C867        S872   1.803       .  S
C868        C869   1.406       .  A
C868        H873   1.083       .  S
C869        C870   1.420       .  A
C870        S874   1.807       .  S
C871        C876   1.411       .  A
C871        C880   1.403       .  A
S872        H888   1.406       .  S
S874        H885   1.401       .  S
C876        C877   1.405       .  A
C876        S881   1.808       .  S
C877        C878   1.408       .  A
C877        H882   1.082       .  S
C878        C879   1.419       .  A
C879        C880   1.406       .  A
C879        S883   1.802       .  S
C880        H884   1.084       .  S
S881        H886   1.407       .  S
S883        H887   1.407       .  S
C889        C894   1.406       .  A
C889       C1802   1.403       .  A
C889        H899   1.084       .  S
C890        C891   1.412       .  A
C890       C1801   1.402       .  A
C890        C895   1.491       .  S
C891       C1804   1.405       .  A
C891        S896   1.805       .  S
C892        C893   1.410       .  A
C892       C1803   1.404       .  A
C892       H1809   1.083       .  S
C893        C894   1.422       .  A
C894        S898   1.802       .  S
C895        C900   1.411       .  A
C895        C904   1.402       .  A
S896        H912   1.406       .  S
H897       C1804   1.083       .  S
S898        H909   1.408       .  S
C900        C901   1.408       .  A
C900        S905   1.805       .  S
C901        C902   1.404       .  A
C901        H906   1.080       .  S
C902        C903   1.416       .  A
C903        C904   1.403       .  A
C903        S907   1.801       .  S
C904        H908   1.084       .  S
S905        H910   1.407       .  S
S907        H911   1.400       .  S
N913        C917   1.368       .  A
N913        C914   1.365       .  A
N913       C1814   1.448       .  S
C914        C915   1.379       .  A
C914       C1757   1.484       .  S
C915        C916   1.367       .  A
C915        H918   1.082       .  S
C916        C917   1.384       .  A
C916        H919   1.082       .  S
C917       C1781   1.492       .  S
N920        C924   1.361       .  A
N920        C921   1.363       .  A
N920       C1709   1.444       .  S
C921        C922   1.384       .  A
C921       C1685   1.485       .  S
C922        C923   1.367       .  A
C922        H925   1.083       .  S
C923        C924   1.379       .  A
C923        H926   1.082       .  S
C924       C1733   1.477       .  S
N927        C931   1.362       .  A
N927        C928   1.364       .  A
N927       C1637   1.448       .  S
C928        C929   1.383       .  A
C928       C1622   1.482       .  S
C929        C930   1.367       .  A
C929        H932   1.083       .  S
C930        C931   1.379       .  A
C930        H933   1.082       .  S
C931       C1661   1.479       .  S
N934        C938   1.363       .  A
N934        C935   1.367       .  A
N934       C1589   1.446       .  S
C935        C936   1.384       .  A
C935       C1550   1.491       .  S
C936        C937   1.370       .  A
C936        H939   1.082       .  S
C937        C938   1.378       .  A
C937        H940   1.082       .  S
C938       C1565   1.483       .  S
N941        C945   1.362       .  A
N941        C942   1.363       .  A
N941       C1502   1.448       .  S
C942        C943   1.381       .  A
C942       C1478   1.477       .  S
C943        C944   1.365       .  A
C943        H946   1.083       .  S
C944        C945   1.380       .  A
C944        H947   1.082       .  S
C945       C1517   1.474       .  S
N948        C952   1.362       .  A
N948        C949   1.361       .  A
N948       C1421   1.445       .  S
C949        C950   1.382       .  A
C949       C1397   1.480       .  S
C950        C951   1.367       .  A
C950        H953   1.082       .  S
C951        C952   1.380       .  A
C951        H954   1.082       .  S
C952       C1445   1.480       .  S
O955        C971   1.280       .  A
O955       Zn961   2.052       .  S
C956       C1670   1.482       .  S
C956        O972   1.280       .  A
C956        O969   1.276   1_655  A
O957        C970   1.272       .  A
O957       Cd964   2.058       .  S
O958        C976   1.276       .  A
O958       Cd967   2.084       .  S
O959        C973   1.280       .  A
O959       Cd963   2.103       .  S
O960        C971   1.279   1_455  A
O960       Cd963   2.096       .  S
Zn961       O972   2.047       .  S
Zn961       O974   2.045       .  S
Zn961       O966   1.956   1_655  S
O962        C973   1.276       .  A
O962       Cd967   2.078       .  S
Cd963       O965   2.098       .  S
Cd963       O966   2.003       .  S
Cd964       O968   2.051   1_655  S
Cd964       O977   2.058   1_655  S
Cd964       O966   1.993   1_655  S
O965        C975   1.278       .  A
O966       Cd967   2.000       .  S
Cd967       O969   2.069       .  S
O968        C975   1.273       .  A
C970       C1325   1.484       .  S
C970        O974   1.276       .  A
C971       C1646   1.505       .  S
C973       C1406   1.491       .  S
C975       C1373   1.486       .  S
C976       C1349   1.486       .  S
C976        O977   1.272       .  A
O978        C994   1.279       .  A
O978       Zn984   2.049       .  S
C979       C1742   1.479       .  S
C979        O995   1.280       .  A
C979        O992   1.274       .  A
O980        C993   1.272       .  A
O980       Cd987   2.053       .  S
O981        C999   1.276       .  A
O981       Cd990   2.082       .  S
O982        C996   1.278       .  A
O982       Cd986   2.088       .  S
O983        C994   1.279       .  A
O983       Cd986   2.089       .  S
Zn984       O995   2.051       .  S
Zn984       O997   2.038       .  S
Zn984       O989   1.950       .  S
O985        C996   1.276       .  A
O985       Cd990   2.072       .  S
Cd986       O988   2.084       .  S
Cd986       O989   2.000       .  S
Cd987       O991   2.050       .  S
Cd987      O1000   2.065       .  S
Cd987       O989   1.992       .  S
O988        C998   1.276       .  A
O989       Cd990   1.994       .  S
Cd990       O992   2.058       .  S
O991        C998   1.272       .  A
C993       C1301   1.481       .  S
C993        O997   1.276       .  A
C994       C1718   1.495       .  S
C996       C1469   1.494       .  S
C998       C1358   1.476       .  S
C999       C1382   1.486       .  S
C999       O1000   1.273       .  A
O1001      C1017   1.279       .  A
O1001     Zn1007   2.045       .  S
C1002      C1805   1.500   1_556  S
C1002      O1018   1.278       .  A
C1002      O1015   1.280       .  A
O1003      C1016   1.274       .  A
O1003     Cd1010   2.069       .  S
O1004      C1022   1.280       .  A
O1004     Cd1013   2.110       .  S
O1005      C1019   1.279       .  A
O1005     Cd1009   2.084       .  S
O1006      C1017   1.277       .  A
O1006     Cd1009   2.087       .  S
Zn1007     O1018   2.039       .  S
Zn1007     O1020   2.031       .  S
Zn1007     O1012   1.951       .  S
O1008      C1019   1.278       .  A
O1008     Cd1013   2.098       .  S
Cd1009     O1011   2.091       .  S
Cd1009     O1012   2.009       .  S
Cd1010     O1014   2.060       .  S
Cd1010     O1023   2.055       .  S
Cd1010     O1012   1.996       .  S
O1011      C1021   1.277       .  A
O1012     Cd1013   2.014       .  S
Cd1013     O1015   2.096       .  S
O1014      C1021   1.273       .  A
C1016      C1238   1.484       .  S
C1016      O1020   1.275       .  A
C1017      C1790   1.495       .  S
C1019      C1694   1.498       .  S
C1021      C1277   1.481       .  S
C1022      C1262   1.493   1_556  S
C1022      O1023   1.274       .  A
O1024      C1040   1.278       .  A
O1024     Zn1030   2.030       .  S
C1025      C1598   1.505       .  S
C1025      O1041   1.275       .  A
C1025      O1038   1.279       .  A
O1026      C1039   1.273       .  A
O1026     Cd1033   2.069       .  S
O1027      C1045   1.278       .  A
O1027     Cd1036   2.090       .  S
O1028      C1042   1.279       .  A
O1028     Cd1032   2.088   1_545  S
O1029      C1040   1.277       .  A
O1029     Cd1032   2.086       .  S
Zn1030     O1041   2.032       .  S
Zn1030     O1043   2.030       .  S
Zn1030     O1035   1.948       .  S
O1031      C1042   1.278       .  A
O1031     Cd1036   2.096   1_545  S
Cd1032     O1034   2.090       .  S
Cd1032     O1035   2.008       .  S
Cd1033     O1037   2.064       .  S
Cd1033     O1046   2.058       .  S
Cd1033     O1035   2.002       .  S
O1034      C1044   1.277       .  A
O1035     Cd1036   2.012       .  S
Cd1036     O1038   2.094       .  S
O1037      C1044   1.274       .  A
C1039      C1205   1.487       .  S
C1039      O1043   1.274       .  A
C1040      C1574   1.494       .  S
C1042      C1613   1.496       .  S
C1044      C1253   1.481       .  S
C1045      C1286   1.483       .  S
C1045      O1046   1.273       .  A
C1047      N1048   1.360       .  A
C1047      N1052   1.360       .  A
C1047      C1181   1.485       .  S
N1048      C1049   1.360       .  A
C1049      N1050   1.359       .  A
C1049      C1229   1.490       .  S
N1050      C1051   1.358       .  A
C1051      N1052   1.360       .  A
C1051      C1334   1.484       .  S
C1053      N1054   1.359       .  A
C1053      N1058   1.360       .  A
C1053      C1157   1.480       .  S
N1054      C1055   1.358       .  A
C1055      N1056   1.358       .  A
C1055      C1310   1.479       .  S
N1056      C1057   1.358       .  A
C1057      N1058   1.360       .  A
C1057      C1214   1.485       .  S
O1059      C1075   1.279       .  A
O1059     Zn1065   2.042       .  S
C1060      C1454   1.497       .  S
C1060      O1076   1.280       .  A
C1060      O1073   1.274       .  A
O1061      C1074   1.274       .  A
O1061     Cd1068   2.071       .  S
O1062      C1080   1.276       .  A
O1062     Cd1071   2.083       .  S
O1063      C1077   1.280       .  A
O1063     Cd1067   2.102       .  S
O1064      C1075   1.279       .  A
O1064     Cd1067   2.089       .  S
Zn1065     O1076   2.041       .  S
Zn1065     O1078   2.023       .  S
Zn1065     O1070   1.943       .  S
O1066      C1077   1.274       .  A
O1066     Cd1071   2.074       .  S
Cd1067     O1069   2.075       .  S
Cd1067     O1070   2.004       .  S
Cd1068     O1072   2.056       .  S
Cd1068     O1081   2.057       .  S
Cd1068     O1070   1.998       .  S
O1069      C1079   1.275       .  A
O1070     Cd1071   1.993       .  S
Cd1071     O1073   2.066       .  S
O1072      C1079   1.274       .  A
C1074      C1166   1.484       .  S
C1074      O1078   1.273       .  A
C1075      C1430   1.493       .  S
C1077      C1766   1.504       .  S
C1079      C1142   1.474       .  S
C1080      C1109   1.480       .  S
C1080      O1081   1.272       .  A
O1082      C1098   1.278       .  A
O1082     Zn1088   2.037       .  S
C1083      C1526   1.480       .  S
C1083      O1099   1.279       .  A
C1083      O1096   1.274       .  A
O1084      C1097   1.272       .  A
O1084     Cd1091   2.070       .  S
O1085      C1103   1.273       .  A
O1085     Cd1094   2.068       .  S
O1086      C1100   1.282       .  A
O1086     Cd1090   2.118       .  S
O1087      C1098   1.281       .  A
O1087     Cd1090   2.098       .  S
Zn1088     O1099   2.047       .  S
Zn1088     O1101   2.031       .  S
Zn1088     O1093   1.948       .  S
O1089      C1100   1.275       .  A
O1089     Cd1094   2.064       .  S
Cd1090     O1092   2.095       .  S
Cd1090     O1093   2.013       .  S
Cd1091     O1095   2.052       .  S
Cd1091     O1104   2.066       .  S
Cd1091     O1093   1.999       .  S
O1092      C1102   1.278       .  A
O1093     Cd1094   1.989       .  S
Cd1094     O1096   2.060       .  S
O1095      C1102   1.274       .  A
C1097      C1190   1.496       .  S
C1097      O1101   1.275       .  A
C1098      C1493   1.498       .  S
C1100      C1541   1.495       .  S
C1102      C1118   1.486       .  S
C1103      C1133   1.486       .  S
C1103      O1104   1.274       .  A
C1105      C1106   1.400       .  A
C1105      C1110   1.399       .  A
C1105      H1115   1.084       .  S
C1106      C1107   1.413       .  A
C1106      C1111   1.478       .  S
C1107      C1108   1.400       .  A
C1107      S1112   1.805       .  S
C1108      C1109   1.404       .  A
C1108      H1113   1.084       .  S
C1109      C1110   1.417       .  A
C1110      S1114   1.805       .  S
C1111      C1116   1.406       .  A
C1111      C1120   1.402       .  A
S1112      H1128   1.405       .  S
S1114      H1125   1.407       .  S
C1116      C1117   1.400       .  A
C1116      S1121   1.807       .  S
C1117      C1118   1.408       .  A
C1117      H1122   1.083       .  S
C1118      C1119   1.417       .  A
C1119      C1120   1.402       .  A
C1119      S1123   1.799       .  S
C1120      H1124   1.084       .  S
S1121      H1126   1.407       .  S
S1123      H1127   1.407       .  S
C1129      C1130   1.400       .  A
C1129      C1134   1.397       .  A
C1130      C1131   1.410       .  A
C1130      C1135   1.477       .  S
C1131      C1132   1.399       .  A
C1131      S1136   1.805       .  S
C1132      C1133   1.408       .  A
C1132      H1137   1.084       .  S
C1133      C1134   1.418       .  A
C1134      S1138   1.800       .  S
C1135      C1144   1.400       .  A
S1136      H1152   1.405       .  S
S1138      H1149   1.403       .  S
C1140      C1141   1.402       .  A
C1140      S1145   1.807       .  S
C1141      C1142   1.405       .  A
C1141      H1146   1.083       .  S
C1142      C1143   1.413       .  A
C1143      S1147   1.804       .  S
C1144      H1148   1.084       .  S
S1145      H1150   1.407       .  S
S1147      H1151   1.407       .  S
C1153      C1154   1.403       .  A
C1153      C1158   1.400       .  A
C1153      H1163   1.084       .  S
C1154      C1155   1.413       .  A
C1154      C1159   1.483       .  S
C1155      C1156   1.402       .  A
C1155      S1160   1.805       .  S
C1156      C1157   1.405       .  A
C1156      H1161   1.084       .  S
C1157      C1158   1.414       .  A
C1158      S1162   1.803       .  S
C1159      C1164   1.410       .  A
C1159      C1168   1.401       .  A
S1160      H1176   1.405       .  S
S1162      H1173   1.407       .  S
C1164      C1165   1.406       .  A
C1164      S1169   1.806       .  S
C1165      C1166   1.407       .  A
C1165      H1170   1.083       .  S
C1166      C1167   1.417       .  A
C1167      C1168   1.398       .  A
C1167      S1171   1.804       .  S
C1168      H1172   1.084       .  S
S1169      H1174   1.407       .  S
S1171      H1175   1.407       .  S
C1177      C1178   1.402       .  A
C1177      C1182   1.402       .  A
C1177      H1187   1.084       .  S
C1178      C1179   1.411       .  A
C1178      C1183   1.484       .  S
C1179      C1180   1.401       .  A
C1179      S1184   1.804       .  S
C1180      C1181   1.405       .  A
C1180      H1185   1.084       .  S
C1181      C1182   1.417       .  A
C1182      S1186   1.803       .  S
C1183      C1188   1.406       .  A
C1183      C1192   1.401       .  A
S1184      H1200   1.405       .  S
S1186      H1197   1.407       .  S
C1188      C1189   1.403       .  A
C1188      S1193   1.807       .  S
C1189      C1190   1.410       .  A
C1189      H1194   1.082       .  S
C1190      C1191   1.422       .  A
C1191      C1192   1.406       .  A
C1191      S1195   1.809       .  S
C1192      H1196   1.082       .  S
S1193      H1198   1.407       .  S
S1195      H1199   1.407       .  S
C1201      C1202   1.403       .  A
C1201      C1206   1.401       .  A
C1201      H1211   1.084       .  S
C1202      C1203   1.413       .  A
C1202      C1207   1.485       .  S
C1203      C1204   1.401       .  A
C1203      S1208   1.804       .  S
C1204      C1205   1.407       .  A
C1204      H1209   1.084       .  S
C1205      C1206   1.417       .  A
C1206      S1210   1.802       .  S
C1207      C1212   1.410       .  A
C1207      C1216   1.402       .  A
S1208      H1224   1.406       .  S
S1210      H1221   1.407       .  S
C1212      C1213   1.404       .  A
C1212      S1217   1.807       .  S
C1213      C1214   1.405       .  A
C1213      H1218   1.083       .  S
C1214      C1215   1.417       .  A
C1215      C1216   1.401       .  A
C1215      S1219   1.803       .  S
C1216      H1220   1.084       .  S
S1217      H1222   1.407       .  S
S1219      H1223   1.407       .  S
C1225      C1226   1.402       .  A
C1225      C1230   1.401       .  A
C1225      H1235   1.084       .  S
C1226      C1227   1.410       .  A
C1226      C1231   1.483       .  S
C1227      C1228   1.400       .  A
C1227      S1232   1.804       .  S
C1228      C1229   1.408       .  A
C1228      H1233   1.083       .  S
C1229      C1230   1.419       .  A
C1230      S1234   1.802       .  S
C1231      C1236   1.409       .  A
C1231      C1240   1.401       .  A
S1232      H1248   1.406       .  S
S1234      H1245   1.407       .  S
C1236      C1237   1.405       .  A
C1236      S1241   1.806       .  S
C1237      C1238   1.407       .  A
C1237      H1242   1.083       .  S
C1238      C1239   1.416       .  A
C1239      C1240   1.400       .  A
C1239      S1243   1.803       .  S
C1240      H1244   1.084       .  S
S1241      H1246   1.407       .  S
S1243      H1247   1.407       .  S
C1249      C1250   1.402   1_565  A
C1249      C1254   1.401       .  A
C1249      H1259   1.084       .  S
C1250      C1251   1.413       .  A
C1250      C1255   1.482       .  S
C1251      C1252   1.401       .  A
C1251      S1256   1.804       .  S
C1252      C1253   1.404   1_545  A
C1252      H1257   1.084       .  S
C1253      C1254   1.416       .  A
C1254      S1258   1.804       .  S
C1255      C1264   1.403       .  A
S1256      H1272   1.405       .  S
S1258      H1269   1.407       .  S
C1260      C1261   1.402   1_554  A
C1260      S1265   1.808   1_554  S
C1261      C1262   1.410   1_556  A
C1261      H1266   1.082       .  S
C1262      C1263   1.417       .  A
C1264      H1268   1.084       .  S
S1265      H1270   1.407       .  S
C1273      C1274   1.401       .  A
C1273      C1278   1.398       .  A
C1273      H1283   1.084       .  S
C1274      C1275   1.414       .  A
C1274      C1279   1.483       .  S
C1275      C1276   1.403       .  A
C1275      S1280   1.804       .  S
C1276      C1277   1.404       .  A
C1276      H1281   1.084       .  S
C1277      C1278   1.416       .  A
C1278      S1282   1.804       .  S
C1279      C1284   1.411       .  A
C1279      C1288   1.401   1_545  A
S1280      H1296   1.406       .  S
S1282      H1293   1.407       .  S
C1284      C1285   1.404       .  A
C1284      S1289   1.806       .  S
C1285      C1286   1.405   1_545  A
C1285      H1290   1.083       .  S
C1286      C1287   1.417       .  A
C1287      C1288   1.399       .  A
C1287      S1291   1.804       .  S
C1288      H1292   1.084       .  S
S1289      H1294   1.407       .  S
S1291      H1295   1.407       .  S
C1297      C1298   1.401       .  A
C1297      C1302   1.399       .  A
C1297      H1307   1.084       .  S
C1298      C1299   1.412       .  A
C1298      C1303   1.480       .  S
C1299      C1300   1.400       .  A
C1299      S1304   1.804       .  S
C1300      C1301   1.405       .  A
C1300      H1305   1.084       .  S
C1301      C1302   1.417       .  A
C1302      S1306   1.804       .  S
C1303      C1308   1.410       .  A
C1303      C1312   1.401       .  A
S1304      H1320   1.406       .  S
S1306      H1317   1.407       .  S
C1308      C1309   1.403       .  A
C1308      S1313   1.807       .  S
C1309      C1310   1.405       .  A
C1309      H1314   1.083       .  S
C1310      C1311   1.415       .  A
C1311      C1312   1.399       .  A
C1311      S1315   1.803       .  S
C1312      H1316   1.084       .  S
S1313      H1318   1.407       .  S
S1315      H1319   1.407       .  S
C1321      C1322   1.401       .  A
C1321      C1326   1.403       .  A
C1321      H1331   1.083       .  S
C1322      C1323   1.412       .  A
C1322      C1327   1.482       .  S
C1323      C1324   1.403       .  A
C1323      S1328   1.804       .  S
C1324      C1325   1.405       .  A
C1324      H1329   1.083       .  S
C1325      C1326   1.415       .  A
C1326      S1330   1.809       .  S
C1327      C1332   1.408       .  A
C1327      C1336   1.401       .  A
S1328      H1344   1.405       .  S
S1330      H1341   1.407       .  S
C1332      C1333   1.404       .  A
C1332      S1337   1.806       .  S
C1333      C1334   1.406       .  A
C1333      H1338   1.082       .  S
C1334      C1335   1.417       .  A
C1335      C1336   1.401       .  A
C1335      S1339   1.803       .  S
C1336      H1340   1.084       .  S
S1337      H1342   1.407       .  S
S1339      H1343   1.407       .  S
C1345      C1346   1.399       .  A
C1345      C1350   1.399       .  A
C1345      H1355   1.084       .  S
C1347      S1352   1.805       .  S
C1348      C1349   1.406       .  A
C1348      H1353   1.084       .  S
C1349      C1350   1.420       .  A
C1350      S1354   1.804       .  S
C1351      C1356   1.408       .  A
C1351      C1360   1.402       .  A
S1352      H1368   1.405       .  S
S1354      H1365   1.408       .  S
C1356      C1357   1.401       .  A
C1356      S1361   1.807       .  S
C1357      C1358   1.405       .  A
C1357      H1362   1.083       .  S
C1358      C1359   1.413       .  A
C1359      C1360   1.399       .  A
C1359      S1363   1.800       .  S
C1360      H1364   1.084       .  S
S1361      H1366   1.407       .  S
S1363      H1367   1.406       .  S
C1369      C1370   1.403       .  A
C1369      C1374   1.402       .  A
C1369      H1379   1.084       .  S
C1370      C1371   1.412       .  A
C1370      C1375   1.483       .  S
C1371      C1372   1.399       .  A
C1371      S1376   1.805       .  S
C1372      C1373   1.407       .  A
C1372      H1377   1.084       .  S
C1373      C1374   1.416       .  A
C1374      S1378   1.799       .  S
C1375      C1380   1.410       .  A
C1375      C1384   1.400       .  A
S1376      H1392   1.405       .  S
S1378      H1389   1.407       .  S
C1380      C1381   1.405       .  A
C1380      S1385   1.807       .  S
C1381      C1382   1.407       .  A
C1381      H1386   1.083       .  S
C1382      C1383   1.419       .  A
C1383      C1384   1.399       .  A
C1383      S1387   1.804       .  S
C1384      H1388   1.084       .  S
S1385      H1390   1.407       .  S
S1387      H1391   1.408       .  S
C1393      C1394   1.402       .  A
C1393      C1398   1.398       .  A
C1393      H1403   1.084       .  S
C1394      C1395   1.416       .  A
C1394      C1399   1.492       .  S
C1395      C1396   1.406       .  A
C1395      S1400   1.802       .  S
C1396      C1397   1.403       .  A
C1396      H1401   1.084       .  S
C1397      C1398   1.414       .  A
C1398      S1402   1.805       .  S
C1399      C1404   1.410       .  A
C1399      C1408   1.405       .  A
S1400      H1416   1.407       .  S
S1402      H1413   1.406       .  S
C1404      C1405   1.408       .  A
C1404      S1409   1.806       .  S
C1405      C1406   1.409       .  A
C1405      H1410   1.083       .  S
C1406      C1407   1.415       .  A
C1407      C1408   1.403       .  A
C1407      S1411   1.802       .  S
C1408      H1412   1.084       .  S
S1409      H1414   1.407       .  S
S1411      H1415   1.407       .  S
C1417      C1418   1.403       .  A
C1417      C1422   1.401       .  A
C1417      H1427   1.084       .  S
C1418      C1419   1.416       .  A
C1418      C1423   1.489       .  S
C1419      C1420   1.404       .  A
C1419      S1424   1.804       .  S
C1420      C1421   1.404       .  A
C1420      H1425   1.082       .  S
C1421      C1422   1.413       .  A
C1422      S1426   1.801       .  S
C1423      C1428   1.409       .  A
C1423      C1432   1.401       .  A
S1426      H1437   1.406       .  S
C1428      S1433   1.806       .  S
C1429      C1430   1.407       .  A
C1429      H1434   1.083       .  S
C1430      C1431   1.421       .  A
C1431      S1435   1.804       .  S
C1432      H1436   1.084       .  S
S1435      H1439   1.407       .  S
C1441      C1442   1.404       .  A
C1441      C1446   1.406       .  A
C1441      H1451   1.083       .  S
C1442      C1443   1.410       .  A
C1442      C1447   1.483       .  S
C1443      C1444   1.398       .  A
C1443      S1448   1.804       .  S
C1444      C1445   1.404       .  A
C1444      H1449   1.084       .  S
C1445      C1446   1.411       .  A
C1446      S1450   1.804       .  S
C1447      C1452   1.410       .  A
C1447      C1456   1.398       .  A
S1448      H1464   1.406       .  S
S1450      H1461   1.407       .  S
C1452      C1453   1.402       .  A
C1452      S1457   1.809       .  S
C1453      C1454   1.408       .  A
C1453      H1458   1.082       .  S
C1454      C1455   1.425       .  A
C1455      C1456   1.402       .  A
C1455      S1459   1.802       .  S
C1456      H1460   1.084       .  S
S1457      H1462   1.406       .  S
S1459      H1463   1.408       .  S
C1465      C1466   1.404   1_455  A
C1465      C1470   1.401       .  A
C1465      H1475   1.084       .  S
C1466      C1467   1.410   1_655  A
C1466      C1471   1.487       .  S
C1467      C1468   1.402       .  A
C1467      S1472   1.803   1_455  S
C1468      C1469   1.410       .  A
C1468      H1473   1.083       .  S
C1469      C1470   1.419       .  A
C1470      S1474   1.802       .  S
C1471      C1476   1.411       .  A
C1471      C1480   1.402       .  A
S1472      H1488   1.406       .  S
S1474      H1485   1.408       .  S
C1476      C1477   1.406       .  A
C1476      S1481   1.805       .  S
C1477      C1478   1.404       .  A
C1477      H1482   1.083       .  S
C1478      C1479   1.412       .  A
C1479      C1480   1.399       .  A
C1479      S1483   1.798       .  S
C1480      H1484   1.084       .  S
S1481      H1486   1.407       .  S
S1483      H1487   1.401       .  S
C1489      C1490   1.404       .  A
C1489      C1494   1.405       .  A
C1489      H1499   1.084       .  S
C1490      C1491   1.414       .  A
C1490      C1495   1.495       .  S
C1491      C1492   1.404       .  A
C1491      S1496   1.805       .  S
C1492      C1493   1.409       .  A
C1492      H1497   1.084       .  S
C1493      C1494   1.420       .  A
C1494      S1498   1.802       .  S
C1495      C1500   1.413       .  A
C1495      C1504   1.404       .  A
S1496      H1512   1.406       .  S
S1498      H1509   1.407       .  S
C1500      C1501   1.408       .  A
C1500      S1505   1.806       .  S
C1501      C1502   1.404       .  A
C1501      H1506   1.082       .  S
C1502      C1503   1.414       .  A
C1503      C1504   1.406       .  A
C1503      S1507   1.801       .  S
C1504      H1508   1.083       .  S
S1505      H1510   1.407       .  S
S1507      H1511   1.407       .  S
C1513      C1514   1.399       .  A
C1513      C1518   1.396       .  A
C1514      C1515   1.413       .  A
C1515      C1516   1.404       .  A
C1515      S1520   1.803       .  S
C1516      C1517   1.403       .  A
C1516      H1521   1.084       .  S
C1517      C1518   1.412       .  A
C1518      S1522   1.810       .  S
C1519      C1524   1.412       .  A
C1519      C1528   1.398       .  A
S1520      H1536   1.405       .  S
S1522      H1533   1.406       .  S
C1524      C1525   1.405       .  A
C1524      S1529   1.807       .  S
C1525      C1526   1.403       .  A
C1525      H1530   1.083       .  S
C1526      C1527   1.417       .  A
C1527      C1528   1.398       .  A
C1527      S1531   1.801       .  S
S1529      H1534   1.407       .  S
S1531      H1535   1.407       .  S
C1537      C1538   1.402       .  A
C1537      C1542   1.400       .  A
C1537      H1547   1.084       .  S
C1538      C1539   1.415       .  A
C1538      C1543   1.494       .  S
C1539      C1540   1.409       .  A
C1539      S1544   1.803       .  S
C1540      C1541   1.408       .  A
C1540      H1545   1.083       .  S
C1541      C1542   1.420       .  A
C1542      S1546   1.804       .  S
C1543      C1548   1.413       .  A
C1543      C1552   1.400       .  A
S1544      H1560   1.406       .  S
S1546      H1557   1.407       .  S
C1548      C1549   1.411       .  A
C1548      S1553   1.805       .  S
C1549      C1550   1.405       .  A
C1549      H1554   1.082       .  S
C1550      C1551   1.420       .  A
C1551      C1552   1.400       .  A
C1551      S1555   1.807       .  S
C1552      H1556   1.084       .  S
S1553      H1558   1.407       .  S
S1555      H1559   1.400       .  S
C1561      C1562   1.402       .  A
C1561      C1566   1.402       .  A
C1561      H1571   1.084       .  S
C1562      C1563   1.414       .  A
C1563      C1564   1.402       .  A
C1564      C1565   1.404       .  A
C1564      H1569   1.084       .  S
C1565      C1566   1.411       .  A
C1566      S1570   1.796       .  S
C1567      C1572   1.410       .  A
C1567      C1576   1.401       .  A
S1568      H1584   1.405       .  S
S1570      H1581   1.404       .  S
C1572      C1573   1.404       .  A
C1572      S1577   1.807       .  S
C1573      C1574   1.408       .  A
C1573      H1578   1.082       .  S
C1574      C1575   1.422       .  A
C1575      C1576   1.404       .  A
C1575      S1579   1.802       .  S
S1577      H1582   1.407       .  S
S1579      H1583   1.408       .  S
C1585      C1586   1.403       .  A
C1585      C1590   1.403       .  A
C1585      H1595   1.084       .  S
C1586      C1587   1.414       .  A
C1586      C1591   1.489       .  S
C1587      C1588   1.403       .  A
C1587      S1592   1.804       .  S
C1588      C1589   1.404       .  A
C1588      H1593   1.082       .  S
C1589      C1590   1.415       .  A
C1590      S1594   1.800       .  S
C1591      C1596   1.409       .  A
C1591      C1600   1.399       .  A
S1592      H1608   1.405       .  S
S1594      H1605   1.402       .  S
C1596      C1597   1.407       .  A
C1596      S1601   1.807       .  S
C1597      C1598   1.412       .  A
C1597      H1602   1.082       .  S
C1598      C1599   1.425       .  A
C1599      C1600   1.403       .  A
C1599      S1603   1.800       .  S
C1600      H1604   1.084       .  S
S1601      H1606   1.407       .  S
S1603      H1607   1.407       .  S
C1609      C1610   1.403       .  A
C1609      C1614   1.407       .  A
C1609      H1619   1.084       .  S
C1610      C1611   1.414       .  A
C1610      C1615   1.491       .  S
C1611      C1612   1.402       .  A
C1611      S1616   1.805       .  S
C1612      C1613   1.407       .  A
C1612      H1617   1.084       .  S
C1613      C1614   1.420       .  A
C1614      S1618   1.802       .  S
C1615      C1620   1.412       .  A
C1615      C1624   1.402       .  A
S1616      H1632   1.405       .  S
S1618      H1629   1.407       .  S
C1620      C1621   1.409       .  A
C1620      S1625   1.805       .  S
C1621      C1622   1.405       .  A
C1621      H1626   1.082       .  S
C1622      C1623   1.413       .  A
C1623      C1624   1.402       .  A
C1623      S1627   1.801       .  S
C1624      H1628   1.084       .  S
S1625      H1630   1.407       .  S
S1627      H1631   1.406       .  S
C1633      C1634   1.402       .  A
C1633      C1638   1.401       .  A
C1633      H1643   1.084       .  S
C1634      C1635   1.419       .  A
C1634      C1639   1.496       .  S
C1635      C1636   1.410       .  A
C1635      S1640   1.804       .  S
C1636      C1637   1.404       .  A
C1636      H1641   1.082       .  S
C1637      C1638   1.416       .  A
C1638      S1642   1.804       .  S
C1639      C1644   1.410       .  A
C1639      C1648   1.402       .  A
S1640      H1656   1.404       .  S
S1642      H1653   1.403       .  S
C1644      C1645   1.411       .  A
C1644      S1649   1.806       .  S
C1645      C1646   1.412       .  A
C1645      H1650   1.082       .  S
C1646      C1647   1.422       .  A
C1647      C1648   1.404       .  A
C1647      S1651   1.800       .  S
C1648      H1652   1.084       .  S
S1649      H1654   1.407       .  S
S1651      H1655   1.408   1_655  S
C1657      C1658   1.403       .  A
C1657      C1662   1.403       .  A
C1657      H1667   1.084       .  S
C1658      C1659   1.410       .  A
C1658      C1663   1.484       .  S
C1659      C1660   1.399       .  A
C1659      S1664   1.803       .  S
C1660      C1661   1.404       .  A
C1660      H1665   1.084       .  S
C1661      C1662   1.414       .  A
C1662      S1666   1.804       .  S
C1663      C1672   1.399       .  A
S1664      H1680   1.406       .  S
S1666      H1677   1.404       .  S
C1668      C1669   1.405   1_554  A
C1669      C1670   1.404       .  A
C1669      H1674   1.083       .  S
C1670      C1671   1.417   1_556  A
C1671      S1675   1.804       .  S
C1672      H1676   1.084       .  S
S1675      H1679   1.407   1_554  S
C1681      C1682   1.401       .  A
C1681      C1686   1.401       .  A
C1681      H1691   1.085       .  S
C1682      C1683   1.415       .  A
C1682      C1687   1.491       .  S
C1683      C1684   1.405       .  A
C1683      S1688   1.803       .  S
C1684      C1685   1.404       .  A
C1684      H1689   1.084       .  S
C1685      C1686   1.415       .  A
C1686      S1690   1.804       .  S
C1687      C1692   1.411       .  A
C1687      C1696   1.402       .  A
S1688      H1704   1.406       .  S
S1690      H1701   1.406       .  S
C1692      C1693   1.405       .  A
C1692      S1697   1.809       .  S
C1693      C1694   1.408   1_565  A
C1693      H1698   1.082       .  S
C1694      C1695   1.420   1_545  A
C1695      C1696   1.406       .  A
C1695      S1699   1.798   1_565  S
C1696      H1700   1.084       .  S
S1697      H1702   1.407       .  S
S1699      H1703   1.407       .  S
C1705      C1706   1.404       .  A
C1705      C1710   1.403       .  A
C1705      H1715   1.084       .  S
C1706      C1707   1.414       .  A
C1706      C1711   1.492       .  S
C1707      C1708   1.404       .  A
C1707      S1712   1.803       .  S
C1708      C1709   1.404       .  A
C1708      H1713   1.083       .  S
C1709      C1710   1.413       .  A
C1710      S1714   1.799       .  S
C1711      C1716   1.411       .  A
S1712      H1728   1.406       .  S
S1714      H1725   1.400       .  S
C1716      S1721   1.807       .  S
C1717      C1718   1.409       .  A
C1717      H1722   1.082       .  S
C1718      C1719   1.418       .  A
C1719      C1720   1.405       .  A
C1719      S1723   1.802       .  S
C1720      H1724   1.084       .  S
S1721      H1726   1.407       .  S
S1723      H1727   1.407       .  S
C1729      C1730   1.398       .  A
C1729      C1734   1.394       .  A
C1729      H1739   1.084       .  S
C1730      C1731   1.413       .  A
C1730      C1735   1.481       .  S
C1731      C1732   1.406       .  A
C1731      S1736   1.803       .  S
C1732      C1733   1.405       .  A
C1732      H1737   1.084       .  S
C1733      C1734   1.416       .  A
C1734      S1738   1.809       .  S
C1735      C1740   1.411       .  A
C1735      C1744   1.400       .  A
S1736      H1752   1.405       .  S
S1738      H1749   1.399       .  S
C1740      C1741   1.404       .  A
C1740      S1745   1.807       .  S
C1741      C1742   1.402       .  A
C1741      H1746   1.083       .  S
C1742      C1743   1.418       .  A
C1743      C1744   1.401       .  A
C1743      S1747   1.804       .  S
C1744      H1748   1.084       .  S
S1745      H1750   1.407       .  S
S1747      H1751   1.407       .  S
C1753      C1754   1.404       .  A
C1753      C1758   1.402       .  A
C1753      H1763   1.084       .  S
C1754      C1755   1.416       .  A
C1754      C1759   1.495       .  S
C1755      C1756   1.404       .  A
C1755      S1760   1.803       .  S
C1756      C1757   1.404       .  A
C1756      H1761   1.083       .  S
C1757      C1758   1.412       .  A
C1758      S1762   1.798       .  S
C1759      C1764   1.410       .  A
C1759      C1768   1.401       .  A
S1760      H1776   1.407       .  S
S1762      H1773   1.404       .  S
C1764      C1765   1.411       .  A
C1764      S1769   1.806       .  S
C1765      C1766   1.412       .  A
C1765      H1770   1.082       .  S
C1766      C1767   1.424       .  A
C1767      C1768   1.400       .  A
C1767      S1771   1.803       .  S
C1768      H1772   1.084       .  S
S1769      H1774   1.407       .  S
S1771      H1775   1.408       .  S
C1777      C1778   1.400       .  A
C1777      C1782   1.399       .  A
C1777      H1787   1.084       .  S
C1778      C1779   1.416       .  A
C1778      C1783   1.492       .  S
C1779      C1780   1.407       .  A
C1779      S1784   1.803       .  S
C1780      C1781   1.405       .  A
C1780      H1785   1.083       .  S
C1781      C1782   1.420       .  A
C1782      S1786   1.807       .  S
C1783      C1788   1.412       .  A
C1783      C1792   1.404       .  A
S1784      H1800   1.406       .  S
S1786      H1797   1.402       .  S
C1788      C1789   1.406       .  A
C1788      S1793   1.808       .  S
C1789      C1790   1.408       .  A
C1789      H1794   1.082       .  S
C1790      C1791   1.419       .  A
C1791      C1792   1.405       .  A
C1791      S1795   1.802       .  S
C1792      H1796   1.084       .  S
S1793      H1798   1.406       .  S
S1795      H1799   1.407       .  S
C1801      C1806   1.404   1_554  A
C1801      H1811   1.084       .  S
C1802      C1803   1.412       .  A
C1802      C1807   1.493       .  S
C1803      S1808   1.805       .  S
C1804      C1805   1.410       .  A
C1805      C1806   1.421   1_554  A
C1806      S1810   1.802       .  S
C1807      C1812   1.411       .  A
C1807      C1816   1.403       .  A
S1808      H1824   1.406       .  S
S1810      H1821   1.408       .  S
C1812      C1813   1.408       .  A
C1812      S1817   1.805       .  S
C1813      C1814   1.405       .  A
C1813      H1818   1.080       .  S
C1814      C1815   1.416       .  A
C1815      C1816   1.403       .  A
C1815      S1819   1.801       .  S
C1816      H1820   1.084       .  S
S1817      H1822   1.407       .  S
S1819      H1823   1.402       .  S
