geometry optimzed in LAMMPS
_audit_creation_date              2020-11-30 
_audit_creation_method            'lammps2cif' 
_symmetry_space_group_name_H-M    'P1' 
_symmetry_Int_Tables_number       1 
_symmetry_cell_setting            triclinic 
loop_ 
_symmetry_equiv_pos_as_xyz 
  x,y,z 
_cell_length_a                    50.64436063 
_cell_length_b                    50.738117807525924 
_cell_length_c                    50.311133457474256 
_cell_angle_alpha                 90.09013588724412 
_cell_angle_beta                  89.8839540278907 
_cell_angle_gamma                 90.02207997520502 
loop_ 
_atom_site_label 
_atom_site_type_symbol 
_atom_site_fract_x 
_atom_site_fract_y 
_atom_site_fract_z 
_atom_site_charge 
N1          N  0.76734708  0.50583844  0.74870717    -0.36100
N2          N  0.80750048  0.50223225  0.78905486    -0.56600
N3          N  0.84860007  0.49954948  0.74759352    -0.36100
N4          N  0.80818535  0.50643176  0.70740093    -0.56600
C5          C  0.75233778  0.50987862  0.77064006     0.27500
C6          C  0.75267290  0.51263094  0.72740031     0.27500
C7          C  0.86368402  0.50311420  0.76944684     0.27500
C8          C  0.86404158  0.50420862  0.72610851     0.27500
C9          C  0.78602723  0.49841734  0.80464320     0.36100
C10         C  0.82876259  0.49648269  0.80411340     0.36100
C11         C  0.78655850  0.50608418  0.69170404     0.36100
C12         C  0.82913787  0.50235747  0.69121853     0.36100
C13         C  0.72770293  0.51912993  0.76310660    -0.21400
C14         C  0.72785975  0.52072078  0.73584491    -0.21400
C15         C  0.88920422  0.50954013  0.76176232    -0.21400
C16         C  0.88944341  0.51015728  0.73438859    -0.21400
C17         C  0.79369737  0.49025848  0.82972778    -0.22400
C18         C  0.82075052  0.48927600  0.82948153    -0.22400
C19         C  0.79382299  0.50229598  0.66540559    -0.22400
C20         C  0.82075684  0.49984891  0.66509298    -0.22400
C21         C  0.75971794  0.50405876  0.79714488    -0.17800
C22         C  0.76034664  0.51012433  0.70045902    -0.17800
C23         C  0.85591022  0.50288315  0.69924503    -0.17800
C24         C  0.85538859  0.49953846  0.79607022    -0.17800
H25         H  0.71117590  0.52396297  0.77588166     0.15100
H26         H  0.71142967  0.52692566  0.72364215     0.15100
H27         H  0.90594180  0.51334651  0.77455147     0.15100
H28         H  0.90634111  0.51468672  0.72200544     0.15100
H29         H  0.78116520  0.48594700  0.84661868     0.13400
H30         H  0.83310815  0.48403627  0.84618429     0.13400
H31         H  0.78106516  0.50153625  0.64818686     0.13400
H32         H  0.83279763  0.49689690  0.64753759     0.13400
H33         H  0.78532334  0.49606225  0.74800660     0.26700
H34         H  0.82956410  0.49193708  0.74735045     0.26700
N35         N  0.49932751  0.75110524  0.76718323    -0.36100
N36         N  0.50256571  0.79188261  0.80761326    -0.56600
N37         N  0.50308645  0.75177416  0.84919655    -0.36100
N38         N  0.50254244  0.71101543  0.80823370    -0.56600
C39         C  0.50379614  0.77254935  0.75184214     0.27500
C40         C  0.50430438  0.72953074  0.75212429     0.27500
C41         C  0.50962218  0.77337377  0.86357181     0.27500
C42         C  0.50895350  0.73032881  0.86401333     0.27500
C43         C  0.49643902  0.80694502  0.78633529     0.36100
C44         C  0.49899191  0.80720613  0.82931592     0.36100
C45         C  0.49754749  0.69539928  0.78698947     0.36100
C46         C  0.49889432  0.69589741  0.83004449     0.36100
C47         C  0.51140436  0.76451071  0.72660862    -0.21400
C48         C  0.51175839  0.73737490  0.72679370    -0.21400
C49         C  0.51944912  0.76557156  0.88804223    -0.21400
C50         C  0.51895431  0.73836779  0.88834743    -0.21400
C51         C  0.48900939  0.83194292  0.79451143    -0.22400
C52         C  0.49058497  0.83211324  0.82173840    -0.22400
C53         C  0.49083733  0.67026977  0.79530921    -0.22400
C54         C  0.49166926  0.67056883  0.82255068    -0.22400
C55         C  0.49959736  0.79908748  0.75955574    -0.17800
C56         C  0.50063135  0.70299670  0.76013543    -0.17800
C57         C  0.50423719  0.70383446  0.85650527    -0.17800
C58         C  0.50551311  0.79984272  0.85564995    -0.17800
H59         H  0.51597808  0.77690262  0.70972148     0.15100
H60         H  0.51662255  0.72485177  0.71005301     0.15100
H61         H  0.52604812  0.77816445  0.90409581     0.15100
H62         H  0.52511752  0.72593619  0.90465806     0.15100
H63         H  0.48344424  0.84844749  0.78212647     0.13400
H64         H  0.48640870  0.84881740  0.83447599     0.13400
H65         H  0.48608886  0.65340071  0.78302123     0.13400
H66         H  0.48777855  0.65388452  0.83535594     0.13400
H67         H  0.49044582  0.75116842  0.78581192     0.26700
H68         H  0.49262684  0.75170027  0.83146442     0.26700
N69         N  0.75200213  0.76238570  0.50316973    -0.36100
N70         N  0.71169608  0.80283982  0.49895928    -0.56600
N71         N  0.75245454  0.84358689  0.49988586    -0.36100
N72         N  0.79278836  0.80263908  0.50108472    -0.56600
C73         C  0.73048505  0.74737323  0.49821517     0.27500
C74         C  0.77347066  0.74727052  0.49827384     0.27500
C75         C  0.73116019  0.85850465  0.49380733     0.27500
C76         C  0.77422758  0.85839322  0.49529195     0.27500
C77         C  0.69587860  0.78181329  0.50338528     0.36100
C78         C  0.69613388  0.82439311  0.50075361     0.36100
C79         C  0.80826574  0.78132585  0.50514189     0.36100
C80         C  0.80846309  0.82398052  0.50407253     0.36100
C81         C  0.73833133  0.72232349  0.49052036    -0.21400
C82         C  0.76546550  0.72228237  0.49044692    -0.21400
C83         C  0.73946569  0.88332846  0.48588699    -0.21400
C84         C  0.76665296  0.88326897  0.48684998    -0.21400
C85         C  0.67014501  0.78999486  0.50776674    -0.22400
C86         C  0.67026966  0.81693964  0.50598863    -0.22400
C87         C  0.83390317  0.78910761  0.51060100    -0.22400
C88         C  0.83405832  0.81611129  0.50987967    -0.22400
C89         C  0.70394375  0.75522840  0.50178357    -0.17800
C90         C  0.80007544  0.75490913  0.50203597    -0.17800
C91         C  0.80068023  0.85036417  0.49943204    -0.17800
C92         C  0.70443179  0.85064156  0.49611383    -0.17800
H93         H  0.72579571  0.70576908  0.48550794     0.15100
H94         H  0.77787930  0.70564244  0.48540151     0.15100
H95         H  0.72721092  0.89980186  0.48006185     0.15100
H96         H  0.77938007  0.89970060  0.48192842     0.15100
H97         H  0.65297730  0.77781887  0.51146218     0.13400
H98         H  0.65317785  0.82957550  0.50812140     0.13400
H99         H  0.85083224  0.77662506  0.51426730     0.13400
H100        H  0.85121486  0.82849102  0.51283042     0.13400
H101        H  0.75197332  0.78073474  0.51228203     0.26700
H102        H  0.75207042  0.82530771  0.50897111     0.26700
O103        O  0.60638848  0.47212491  0.94395390    -0.78000
C104        C  0.56286049  0.48035010  0.02097170     0.83100
O105        O  0.55282003  0.39281547  0.96275190    -0.79100
O106        O  0.48379334  0.46067302  0.98251807    -0.80600
O107        O  0.52648186  0.51083046  0.91732718    -0.80400
O108        O  0.58369464  0.48271137  0.90781074    -0.79000
Zn109      Zn  0.57869659  0.45462002  0.96764946     1.55700
O110        O  0.51311940  0.51669208  0.95920399    -0.80400
Cd111      Cd  0.54514575  0.47478489  0.91737623     1.59700
Cd112      Cd  0.52760468  0.42205177  0.94875719     1.59600
O113        O  0.53141691  0.45063459  0.88722514    -0.80400
O114        O  0.54330304  0.45788071  0.95307252    -1.90900
Cd115      Cd  0.52019978  0.47981996  0.97688596     1.59900
O116        O  0.52313007  0.41343509  0.90885571    -0.80300
O117        O  0.53921148  0.48527808  0.01360287    -0.79000
C118        C  0.57734305  0.39396078  0.96834348     0.83500
C119        C  0.60537995  0.48138121  0.92038921     0.83200
O120        O  0.57936872  0.46966281  0.00501012    -0.77900
C121        C  0.51599347  0.52504967  0.93537882     0.84000
O122        O  0.58907993  0.41614956  0.97009803    -0.78000
C123        C  0.52505114  0.42636373  0.88722809     0.84100
C124        C  0.47530757  0.43752548  0.97714987     0.84500
O125        O  0.49019153  0.42059356  0.96570732    -0.80500
O126        O  0.55170163  0.60484651  0.52344072    -0.78000
C127        C  0.47503018  0.56143768  0.51644705     0.83100
O128        O  0.52579118  0.55609018  0.60580895    -0.79100
O129        O  0.51498769  0.48350782  0.53750424    -0.80600
O130        O  0.57988513  0.52650767  0.49085826    -0.80400
O131        O  0.58954387  0.58289449  0.52212822    -0.79000
Zn132      Zn  0.52734973  0.57884130  0.54212718     1.55700
O133        O  0.53854838  0.51428155  0.48208341    -0.80400
Cd134      Cd  0.57835366  0.54434202  0.52785867     1.59700
Cd135      Cd  0.54176760  0.52970610  0.57837967     1.59600
O136        O  0.60575774  0.52973446  0.55489586    -0.80400
O137        O  0.54150463  0.54359985  0.54157967    -1.90900
Cd138      Cd  0.51954041  0.52004339  0.51865271     1.59900
O139        O  0.58016221  0.52532366  0.59042299    -0.80300
O140        O  0.48271648  0.53775652  0.51253361    -0.79000
C141        C  0.52274173  0.58091300  0.60310777     0.83500
C142        C  0.57661797  0.60429907  0.51986355     0.83200
O143        O  0.49064847  0.57857325  0.52642212    -0.77900
C144        C  0.56266643  0.51707095  0.47499358     0.84000
O145        O  0.52394150  0.59168808  0.58025547    -0.78000
C146        C  0.60290884  0.52548842  0.57973752     0.84100
C147        C  0.51781707  0.47622939  0.56165071     0.84500
O148        O  0.52567223  0.49230888  0.57952692    -0.80500
O149        O  0.44973266  0.89251466  0.52572752    -0.78000
C150        C  0.52795698  0.93303706  0.51216478     0.83100
O151        O  0.47769605  0.94473269  0.60370577    -0.79100
O152        O  0.49407067  0.01376381  0.53511471    -0.80600
O153        O  0.42716318  0.97316419  0.48729849    -0.80400
O154        O  0.41459267  0.91722166  0.51763965    -0.79000
Zn155      Zn  0.47607574  0.91924489  0.54075893     1.55700
O156        O  0.46879765  0.98470191  0.47941360    -0.80400
Cd157      Cd  0.42697290  0.95538316  0.52418137     1.59700
Cd158      Cd  0.46161772  0.97042398  0.57576615     1.59600
O159        O  0.39917994  0.97158514  0.55014025    -0.80400
O160        O  0.46323760  0.95525054  0.53918094    -1.90900
Cd161      Cd  0.48683959  0.97756683  0.51620265     1.59900
O162        O  0.42263611  0.97592383  0.58709207    -0.80300
O163        O  0.52215933  0.95739094  0.50920793    -0.79000
C164        C  0.48316022  0.92024755  0.60149493     0.83500
C165        C  0.42567573  0.89475355  0.51849249     0.83200
O166        O  0.51143877  0.91704144  0.52242582    -0.77900
C167        C  0.44489120  0.98227041  0.47172744     0.84000
O168        O  0.48234873  0.90883599  0.57895426    -0.78000
C169        C  0.40054985  0.97661257  0.57495471     0.84100
C170        C  0.48947641  0.02219019  0.55865840     0.84500
O171        O  0.47889675  0.00756029  0.57637115    -0.80500
N172        N  0.51225902  0.25096861  0.73032982    -0.36100
N173        N  0.51518008  0.28945076  0.68799234    -0.56600
N174        N  0.51172218  0.24784244  0.64822661    -0.36100
N175        N  0.50647077  0.20946676  0.69094578    -0.56600
C176        C  0.50982525  0.27355770  0.74439128     0.27500
C177        C  0.50352608  0.23112599  0.74595519     0.27500
C178        C  0.50696855  0.26919815  0.63280116     0.27500
C179        C  0.50500698  0.22614668  0.63407845     0.27500
C180        C  0.52200656  0.30505112  0.70863555     0.36100
C181        C  0.51936218  0.30375156  0.66578995     0.36100
C182        C  0.50777325  0.19457972  0.71318059     0.36100
C183        C  0.50960381  0.19277774  0.67022454     0.36100
C184        C  0.49983119  0.26799784  0.76945025    -0.21400
C185        C  0.49580712  0.24117869  0.77042455    -0.21400
C186        C  0.49767807  0.26091802  0.60827049    -0.21400
C187        C  0.49656722  0.23372310  0.60902857    -0.21400
C188        C  0.53076227  0.32929465  0.69955084    -0.22400
C189        C  0.52893273  0.32854552  0.67239426    -0.22400
C190        C  0.51139776  0.16832316  0.70660191    -0.22400
C191        C  0.51278290  0.16718774  0.67942696    -0.22400
C192        C  0.51752364  0.29884768  0.73555022    -0.17800
C193        C  0.50398805  0.20406160  0.73928999    -0.17800
C194        C  0.50682053  0.19974020  0.64311421    -0.17800
C195        C  0.51215833  0.29577518  0.63988525    -0.17800
H196        H  0.49594956  0.28180470  0.78541089     0.15100
H197        H  0.48829171  0.23029905  0.78731550     0.15100
H198        H  0.49248576  0.27317599  0.59149055     0.15100
H199        H  0.49010518  0.22099316  0.59303156     0.15100
H200        H  0.53698272  0.34606599  0.71130102     0.13400
H201        H  0.53361677  0.34462812  0.65908321     0.13400
H202        H  0.51263642  0.15167453  0.71996619     0.13400
H203        H  0.51518562  0.14939750  0.66777132     0.13400
H204        H  0.52210383  0.24891511  0.71231384     0.26700
H205        H  0.52131114  0.24781228  0.66643681     0.26700
O206        O  0.44770361  0.10680939  0.97049018    -0.78000
C207        C  0.52573147  0.06496263  0.98022488     0.83100
O208        O  0.47257412  0.05554303  0.89117418    -0.79100
O209        O  0.48879199  0.98491243  0.95922438    -0.80600
O210        O  0.42322244  0.02614789  0.00711593    -0.80400
O211        O  0.41143579  0.08331027  0.97745741    -0.79000
Zn212      Zn  0.47295153  0.07989333  0.95440171     1.55700
O213        O  0.46512487  0.01470799  0.01464987    -0.80400
Cd214      Cd  0.42323364  0.04478570  0.97073467     1.59700
Cd215      Cd  0.45799998  0.02942423  0.91916959     1.59600
O216        O  0.39553074  0.02853982  0.94490792    -0.80400
O217        O  0.45957038  0.04425794  0.95572532    -1.90900
Cd218      Cd  0.48325646  0.02151020  0.97795742     1.59900
O219        O  0.41940118  0.02240355  0.90831394    -0.80300
O220        O  0.51955541  0.04073011  0.98363069    -0.79000
C221        C  0.47794075  0.07994890  0.89358978     0.83500
C222        C  0.42342307  0.10537681  0.97719644     0.83200
O223        O  0.50896596  0.08124786  0.97102233    -0.77900
C224        C  0.44106299  0.01663632  0.02215488     0.84000
O225        O  0.47797250  0.09096613  0.91636664    -0.78000
C226        C  0.39728759  0.02221519  0.92042874     0.84100
C227        C  0.48502864  0.97742504  0.93523884     0.84500
O228        O  0.47611971  0.99313253  0.91768780    -0.80500
N229        N  0.75040421  0.23351372  0.98539407    -0.36100
N230        N  0.71124141  0.19217978  0.98593683    -0.56600
N231        N  0.75275933  0.15232022  0.99215422    -0.36100
N232        N  0.79160144  0.19423473  0.99400044    -0.56600
C233        C  0.72813733  0.24813001  0.98702330     0.27500
C234        C  0.77068937  0.24923931  0.99264665     0.27500
C235        C  0.73109844  0.13754261  0.99730962     0.27500
C236        C  0.77409741  0.13860594  0.00060235     0.27500
C237        C  0.69554667  0.21249896  0.97861955     0.36100
C238        C  0.69664885  0.17004420  0.98326625     0.36100
C239        C  0.80679401  0.21589072  0.99087400     0.36100
C240        C  0.80814909  0.17337264  0.99343820     0.36100
C241        C  0.73440820  0.27359238  0.99484533    -0.21400
C242        C  0.76127461  0.27428148  0.99845608    -0.21400
C243        C  0.73882336  0.11382294  0.00854582    -0.21400
C244        C  0.76596617  0.11450360  0.01063075    -0.21400
C245        C  0.67089590  0.20328955  0.97127620    -0.22400
C246        C  0.67152210  0.17643749  0.97433160    -0.22400
C247        C  0.83310044  0.20882122  0.98837683    -0.22400
C248        C  0.83396636  0.18186859  0.98988308    -0.22400
C249        C  0.70242736  0.23940379  0.98064379    -0.17800
C250        C  0.79761803  0.24204355  0.99283982    -0.17800
C251        C  0.80071180  0.14707503  0.99895025    -0.17800
C252        C  0.70469584  0.14446857  0.99115707    -0.17800
H253        H  0.72102760  0.28999772  0.99766376     0.15100
H254        H  0.77259406  0.29136484  0.00449645     0.15100
H255        H  0.72621395  0.09768829  0.01462984     0.15100
H256        H  0.77829310  0.09906394  0.01871989     0.15100
H257        H  0.65402691  0.21477444  0.96498847     0.13400
H258        H  0.65511133  0.16322074  0.97084803     0.13400
H259        H  0.84996627  0.22176747  0.98627479     0.13400
H260        H  0.85168707  0.16995934  0.98920457     0.13400
H261        H  0.75201266  0.21482306  0.97712718     0.26700
H262        H  0.75311701  0.16968924  0.98127281     0.26700
N263        N  0.23657903  0.99612006  0.74933748    -0.36100
N264        N  0.19468813  0.99911473  0.78921269    -0.56600
N265        N  0.15499615  0.99698124  0.74761697    -0.36100
N266        N  0.19727617  0.99643703  0.70748707    -0.56600
C267        C  0.25088605  0.00192231  0.77125952     0.27500
C268        C  0.25228022  0.00029147  0.72792554     0.27500
C269        C  0.13953778  0.00346249  0.76867437     0.27500
C270        C  0.14081253  0.00125924  0.72525717     0.27500
C271        C  0.21561977  0.99598331  0.80552839     0.36100
C272        C  0.17288069  0.99706824  0.80459856     0.36100
C273        C  0.21905783  0.99182901  0.69249412     0.36100
C274        C  0.17619126  0.99194427  0.69164023     0.36100
C275        C  0.27611606  0.00956928  0.76369323    -0.21400
C276        C  0.27699823  0.00850069  0.73636730    -0.21400
C277        C  0.11501921  0.01150181  0.75958199    -0.21400
C278        C  0.11578250  0.01001313  0.73220554    -0.21400
C279        C  0.20710784  0.99198034  0.83140217    -0.22400
C280        C  0.18005345  0.99267011  0.83083252    -0.22400
C281        C  0.21180134  0.98464100  0.66697836    -0.22400
C282        C  0.18470952  0.98477422  0.66639583    -0.22400
C283        C  0.24228696  0.99928380  0.79794788    -0.17800
C284        C  0.24543617  0.99529345  0.70108609    -0.17800
C285        C  0.14941326  0.99616086  0.69887590    -0.17800
C286        C  0.14670041  0.00152685  0.79585632    -0.17800
H287        H  0.29231693  0.01514229  0.77653364     0.15100
H288        H  0.29398339  0.01306168  0.72411494     0.15100
H289        H  0.09827678  0.01770482  0.77143902     0.15100
H290        H  0.09969853  0.01481271  0.71894106     0.15100
H291        H  0.21914496  0.98950341  0.84897475     0.13400
H292        H  0.16717045  0.99073021  0.84791533     0.13400
H293        H  0.22467586  0.98003711  0.65041439     0.13400
H294        H  0.17270107  0.98040109  0.64917639     0.13400
H295        H  0.21821826  0.98697717  0.74917835     0.26700
H296        H  0.17325430  0.98769475  0.74843917     0.26700
N297        N  0.00036351  0.74603457  0.22814932    -0.36100
N298        N  0.99959908  0.78725823  0.18807066    -0.56600
N299        N  0.99796658  0.74762887  0.14620799    -0.36100
N300        N  0.99625331  0.70638368  0.18669202    -0.56600
C301        C  0.99708186  0.76752097  0.24375740     0.27500
C302        C  0.99465035  0.72461001  0.24306120     0.27500
C303        C  0.99248941  0.76959026  0.13196616     0.27500
C304        C  0.99151744  0.72653875  0.13106641     0.27500
C305        C  0.00561161  0.80200256  0.20962815     0.36100
C306        C  0.00371782  0.80280659  0.16668567     0.36100
C307        C  0.99975656  0.69033587  0.20785693     0.36100
C308        C  0.99916525  0.69121799  0.16477292     0.36100
C309        C  0.98957809  0.75966733  0.26905230    -0.21400
C310        C  0.98795066  0.73258903  0.26859610    -0.21400
C311        C  0.98273878  0.76236554  0.10728331    -0.21400
C312        C  0.98216385  0.73516435  0.10669423    -0.21400
C313        C  0.01338887  0.82704119  0.20194913    -0.22400
C314        C  0.01226063  0.82754538  0.17475566    -0.22400
C315        C  0.00462202  0.66481179  0.19938871    -0.22400
C316        C  0.00432120  0.66535849  0.17211782    -0.22400
C317        C  0.00240682  0.79384499  0.23623886    -0.17800
C318        C  0.99685410  0.69802047  0.23473555    -0.17800
C319        C  0.99498319  0.69978662  0.13830370    -0.17800
C320        C  0.99773739  0.79582635  0.14013755    -0.17800
H321        H  0.98592055  0.77212232  0.28615190     0.15100
H322        H  0.98276296  0.72017920  0.28529386     0.15100
H323        H  0.97693420  0.77533816  0.09127224     0.15100
H324        H  0.97568266  0.72310940  0.09017995     0.15100
H325        H  0.01897039  0.84336634  0.21462251     0.13400
H326        H  0.01684815  0.84437134  0.16237529     0.13400
H327        H  0.00774439  0.64754374  0.21158909     0.13400
H328        H  0.00711879  0.64850711  0.15919670     0.13400
H329        H  0.00899058  0.74587074  0.20940891     0.26700
H330        H  0.00824027  0.74696819  0.16404701     0.26700
N331        N  0.25006310  0.73501995  0.50520632    -0.36100
N332        N  0.21005492  0.69404079  0.50232865    -0.56600
N333        N  0.25067433  0.65361270  0.50182289    -0.36100
N334        N  0.29085619  0.69474880  0.50248397    -0.56600
C335        C  0.22851332  0.74968363  0.49932694     0.27500
C336        C  0.27160138  0.75013840  0.50048217     0.27500
C337        C  0.22927687  0.63891798  0.49551739     0.27500
C338        C  0.27233710  0.63930715  0.49549058     0.27500
C339        C  0.19420279  0.71513042  0.50608109     0.36100
C340        C  0.19461127  0.67252486  0.50509635     0.36100
C341        C  0.30607446  0.71597502  0.50800445     0.36100
C342        C  0.30636580  0.67331740  0.50577940     0.36100
C343        C  0.23644793  0.77459981  0.49128100    -0.21400
C344        C  0.26363019  0.77489357  0.49204233    -0.21400
C345        C  0.23741403  0.61479649  0.48543847    -0.21400
C346        C  0.26464217  0.61502728  0.48546141    -0.21400
C347        C  0.16858235  0.70702883  0.51125033    -0.22400
C348        C  0.16883367  0.68003347  0.51070638    -0.22400
C349        C  0.33135372  0.70799842  0.51474061    -0.22400
C350        C  0.33156841  0.68099977  0.51326451    -0.22400
C351        C  0.20187947  0.74152614  0.50198698    -0.17800
C352        C  0.29819850  0.74250645  0.50461792    -0.17800
C353        C  0.29876133  0.64705248  0.50013903    -0.17800
C354        C  0.20267863  0.64640655  0.49961225    -0.17800
H355        H  0.22395765  0.79092211  0.48551949     0.15100
H356        H  0.27610469  0.79145584  0.48691370     0.15100
H357        H  0.22502660  0.59867978  0.47885485     0.15100
H358        H  0.27732660  0.59909139  0.47898008     0.15100
H359        H  0.15136862  0.71929657  0.51437162     0.13400
H360        H  0.15177388  0.66742613  0.51328847     0.13400
H361        H  0.34806762  0.72036725  0.51965215     0.13400
H362        H  0.34848956  0.66849097  0.51688670     0.13400
H363        H  0.25004440  0.71672448  0.51439843     0.26700
H364        H  0.25052330  0.67114479  0.51244879     0.26700
N365        N  0.73525593  0.50210468  0.25257163    -0.36100
N366        N  0.69320402  0.50374033  0.29148157    -0.56600
N367        N  0.65414501  0.50145879  0.24868643    -0.36100
N368        N  0.69645766  0.50203803  0.20974646    -0.56600
C369        C  0.74901196  0.50873666  0.27461527     0.27500
C370        C  0.75072567  0.50774914  0.23140557     0.27500
C371        C  0.63813602  0.50636687  0.26970291     0.27500
C372        C  0.63995501  0.50559735  0.22624412     0.27500
C373        C  0.71391035  0.50073620  0.30816173     0.36100
C374        C  0.67117130  0.50016091  0.30620664     0.36100
C375        C  0.71863622  0.49705506  0.19561019     0.36100
C376        C  0.67589793  0.49701960  0.19339330     0.36100
C377        C  0.77357116  0.51850504  0.26738202    -0.21400
C378        C  0.77462497  0.51794275  0.24008535    -0.21400
C379        C  0.61328830  0.51330519  0.26052508    -0.21400
C380        C  0.61445491  0.51287819  0.23311340    -0.21400
C381        C  0.70507315  0.49553008  0.33366033    -0.22400
C382        C  0.67800854  0.49518144  0.33245975    -0.22400
C383        C  0.71217615  0.48888276  0.17014722    -0.22400
C384        C  0.68510934  0.48894348  0.16870501    -0.22400
C385        C  0.74057273  0.50482451  0.30109121    -0.17800
C386        C  0.74457012  0.50219276  0.20459291    -0.17800
C387        C  0.64898346  0.50122663  0.19985061    -0.17800
C388        C  0.64494937  0.50320025  0.29685982    -0.17800
H389        H  0.78918922  0.52519585  0.28041326     0.15100
H390        H  0.79122580  0.52408025  0.22800420     0.15100
H391        H  0.59601193  0.51790561  0.27234648     0.15100
H392        H  0.59824703  0.51701569  0.21976974     0.15100
H393        H  0.71687217  0.49278065  0.35135579     0.13400
H394        H  0.66488949  0.49204293  0.34916530     0.13400
H395        H  0.72556847  0.48390847  0.15411652     0.13400
H396        H  0.67354718  0.48384009  0.15136942     0.13400
H397        H  0.71777158  0.49141015  0.25206110     0.26700
H398        H  0.67271459  0.49297396  0.24969336     0.26700
O399        O  0.89723072  0.52544874  0.44646002    -0.78000
C400        C  0.94224479  0.51343073  0.52222416     0.83100
O401        O  0.94604805  0.60462303  0.46980626    -0.79100
O402        O  0.01878887  0.53867062  0.48395428    -0.80600
O403        O  0.97621877  0.49074209  0.41728287    -0.80400
O404        O  0.91964035  0.52200952  0.40861544    -0.79000
Zn405      Zn  0.92458580  0.54067668  0.47130909     1.55700
O406        O  0.99096227  0.48325642  0.45826646    -0.80400
Cd407      Cd  0.95844978  0.52722800  0.41918283     1.59700
Cd408      Cd  0.97342429  0.57809306  0.45441727     1.59600
O409        O  0.97399119  0.55309167  0.39131442    -0.80400
O410        O  0.95965948  0.54127650  0.45595172    -1.90900
Cd411      Cd  0.98352978  0.51880523  0.47773820     1.59900
O412        O  0.97957444  0.58941948  0.41531510    -0.80300
O413        O  0.96607220  0.51089224  0.51434920    -0.79000
C414        C  0.92202918  0.60067883  0.47642822     0.83500
C415        C  0.89798365  0.52121009  0.42151631     0.83200
O416        O  0.92449260  0.52293725  0.50706880    -0.77900
C417        C  0.98713204  0.47575907  0.43432251     0.84000
O418        O  0.91242926  0.57757276  0.47750404    -0.78000
C419        C  0.97970924  0.57749154  0.39297486     0.84100
C420        C  0.02578382  0.56271472  0.48153346     0.84500
O421        O  0.00996934  0.58025405  0.47273703    -0.80500
O422        O  0.05401870  0.89220771  0.46465695    -0.78000
C423        C  0.97716522  0.93466312  0.47709477     0.83100
O424        O  0.03088561  0.94569296  0.38683736    -0.79100
O425        O  0.01503472  0.01390729  0.45769269    -0.80600
O426        O  0.07957201  0.97054685  0.50579350    -0.80400
O427        O  0.09019967  0.91533389  0.47341485    -0.79000
Zn428      Zn  0.02909884  0.91971499  0.44952914     1.55700
O429        O  0.03821690  0.98324492  0.51352147    -0.80400
Cd430      Cd  0.07926385  0.95390516  0.46836570     1.59700
Cd431      Cd  0.04599782  0.97039146  0.41633791     1.59600
O432        O  0.10769381  0.97095576  0.44401068    -0.80400
O433        O  0.04330880  0.95495593  0.45265819    -1.90900
Cd434      Cd  0.02036363  0.97737049  0.47609318     1.59900
O435        O  0.08503534  0.97681593  0.40671974    -0.80300
O436        O  0.98387589  0.95861346  0.48128039    -0.79000
C437        C  0.02453224  0.92144024  0.38851639     0.83500
C438        C  0.07810670  0.89336803  0.47188999     0.83200
O439        O  0.99304412  0.91824980  0.46643095    -0.77900
C440        C  0.06202674  0.98000401  0.52132856     0.84000
O441        O  0.02394594  0.91000606  0.41104477    -0.78000
C442        C  0.10662600  0.97756285  0.41958665     0.84100
C443        C  0.01918149  0.02222965  0.43407795     0.84500
O444        O  0.02901110  0.00730536  0.41616070    -0.80500
O445        O  0.89475025  0.47214095  0.05507959    -0.78000
C446        C  0.93463009  0.48008449  0.97498135     0.83100
O447        O  0.94461148  0.39293839  0.02654785    -0.79100
O448        O  0.01501354  0.45923309  0.01030810    -0.80600
O449        O  0.97701583  0.50824683  0.07591200    -0.80400
O450        O  0.92035599  0.48003976  0.08995314    -0.79000
Zn451      Zn  0.92035377  0.45550805  0.02858321     1.55700
O452        O  0.98544808  0.51435085  0.03288261    -0.80400
Cd453      Cd  0.95811567  0.47192575  0.07719435     1.59700
Cd454      Cd  0.97109746  0.41986956  0.04225272     1.59600
O455        O  0.97358850  0.44574908  0.10507364    -0.80400
O456        O  0.95649612  0.45618052  0.04104716    -1.90900
Cd457      Cd  0.97872893  0.47749372  0.01650627     1.59900
O458        O  0.97686896  0.40893059  0.08124558    -0.80300
O459        O  0.95909828  0.48227301  0.98067367    -0.79000
C460        C  0.92004392  0.39550921  0.02178661     0.83500
C461        C  0.89773040  0.47993852  0.07903605     0.83200
O462        O  0.91803893  0.47216348  0.99228801    -0.77900
C463        C  0.98455565  0.52291996  0.05669880     0.84000
O464        O  0.90884078  0.41796354  0.02315503    -0.78000
C465        C  0.97820796  0.42104374  0.10337594     0.84100
C466        C  0.02296685  0.43567769  0.01410250     0.84500
O467        O  0.00790848  0.41812538  0.02416483    -0.80500
N468        N  0.26848314  0.99780941  0.24921027    -0.36100
N469        N  0.30848795  0.99902452  0.20753003    -0.56600
N470        N  0.34974097  0.99745056  0.24744587    -0.36100
N471        N  0.30957830  0.99867020  0.28921395    -0.56600
C472        C  0.25342890  0.00378980  0.22788624     0.27500
C473        C  0.25404751  0.00341119  0.27116986     0.27500
C474        C  0.36446650  0.00257383  0.22556419     0.27500
C475        C  0.36508668  0.00214017  0.26892085     0.27500
C476        C  0.28681617  0.99618002  0.19219587     0.36100
C477        C  0.32952013  0.99619872  0.19122696     0.36100
C478        C  0.28846506  0.99470413  0.30521922     0.36100
C479        C  0.33122283  0.99461499  0.30431401     0.36100
C480        C  0.22901725  0.01295861  0.23638553    -0.21400
C481        C  0.22943287  0.01276361  0.26370722    -0.21400
C482        C  0.38964854  0.01008491  0.23322519    -0.21400
C483        C  0.39004531  0.00979423  0.26059566    -0.21400
C484        C  0.29406694  0.99175236  0.16599093    -0.22400
C485        C  0.32112481  0.99174437  0.16536973    -0.22400
C486        C  0.29670745  0.98826346  0.33063019    -0.22400
C487        C  0.32378547  0.98834574  0.33010591    -0.22400
C488        C  0.26064990  0.00010137  0.20097250    -0.17800
C489        C  0.26192215  0.99889645  0.29773945    -0.17800
C490        C  0.35760490  0.99833772  0.29576304    -0.17800
C491        C  0.35616161  0.99955856  0.19887997    -0.17800
H492        H  0.21255645  0.01910198  0.22418609     0.15100
H493        H  0.21338329  0.01872910  0.27661939     0.15100
H494        H  0.40608229  0.01513232  0.22042220     0.15100
H495        H  0.40685895  0.01453475  0.27295704     0.15100
H496        H  0.28121718  0.98941593  0.14898128     0.13400
H497        H  0.33320979  0.98927337  0.14777198     0.13400
H498        H  0.28451454  0.98445320  0.34789387     0.13400
H499        H  0.33652902  0.98454597  0.34691419     0.13400
H500        H  0.28629379  0.98770398  0.24876528     0.26700
H501        H  0.33126153  0.98863225  0.24772298     0.26700
O502        O  0.05784897  0.10548440  0.02718616    -0.78000
C503        C  0.97844043  0.06315289  0.02022911     0.83100
O504        O  0.03066384  0.05418587  0.10647538    -0.79100
O505        O  0.01603629  0.98358951  0.03857838    -0.80600
O506        O  0.08148356  0.02536045  0.99007091    -0.80400
O507        O  0.09346837  0.08069465  0.02126307    -0.79000
Zn508      Zn  0.03193657  0.07892144  0.04341598     1.55700
O509        O  0.03922523  0.01530936  0.98270613    -0.80400
Cd510      Cd  0.08107173  0.04266503  0.02720811     1.59700
Cd511      Cd  0.04578261  0.02809314  0.07876787     1.59600
O512        O  0.10831794  0.02660155  0.05316621    -0.80400
O513        O  0.04487806  0.04299341  0.04230340    -1.90900
Cd514      Cd  0.02165260  0.02027476  0.02013984     1.59900
O515        O  0.08426434  0.02212873  0.08983830    -0.80300
O516        O  0.98525072  0.03916865  0.01656270    -0.79000
C517        C  0.02655155  0.07882209  0.10409124     0.83500
C518        C  0.08233327  0.10313557  0.02145599     0.83200
O519        O  0.99500190  0.08045303  0.02816996    -0.77900
C520        C  0.06308325  0.01762396  0.97462007     0.84000
O521        O  0.02767250  0.08999697  0.08146288    -0.78000
C522        C  0.10643022  0.02142937  0.07786609     0.84100
C523        C  0.01879207  0.97598195  0.06263261     0.84500
O524        O  0.02798479  0.99144945  0.08037958    -0.80500
N525        N  0.99636674  0.25069815  0.26604804    -0.36100
N526        N  0.99415032  0.29018590  0.30753549    -0.56600
N527        N  0.99215776  0.24877818  0.34801350    -0.36100
N528        N  0.99665239  0.20944669  0.30606742    -0.56600
C529        C  0.00154478  0.27260420  0.25170794     0.27500
C530        C  0.00344147  0.22976946  0.25101758     0.27500
C531        C  0.99593828  0.27015533  0.36366630     0.27500
C532        C  0.99764502  0.22713454  0.36272733     0.27500
C533        C  0.99094612  0.30607929  0.28620045     0.36100
C534        C  0.98949504  0.30521308  0.32923067     0.36100
C535        C  0.99449577  0.19434264  0.28404252     0.36100
C536        C  0.99293700  0.19324343  0.32700700     0.36100
C537        C  0.01182775  0.26554733  0.22715485    -0.21400
C538        C  0.01310366  0.23847986  0.22673791    -0.21400
C539        C  0.00308618  0.26194504  0.38893990    -0.21400
C540        C  0.00428472  0.23481673  0.38830630    -0.21400
C541        C  0.98442501  0.33131469  0.29430652    -0.22400
C542        C  0.98375028  0.33087054  0.32150138    -0.22400
C543        C  0.98934230  0.16843037  0.29096883    -0.22400
C544        C  0.98851589  0.16768394  0.31819156    -0.22400
C545        C  0.99577851  0.29869626  0.25956869    -0.17800
C546        C  0.99992156  0.20302128  0.25796427    -0.17800
C547        C  0.99606625  0.20062841  0.35393020    -0.17800
C548        C  0.99257975  0.29682739  0.35592720    -0.17800
H549        H  0.01765313  0.27855389  0.21114661     0.15100
H550        H  0.02006144  0.22656543  0.21029009     0.15100
H551        H  0.00723115  0.27422159  0.40603767     0.15100
H552        H  0.00947996  0.22219614  0.40480978     0.15100
H553        H  0.98118305  0.34845757  0.28196222     0.13400
H554        H  0.97991635  0.34779675  0.33400329     0.13400
H555        H  0.98723908  0.15166249  0.27781381     0.13400
H556        H  0.98557942  0.15017164  0.33009021     0.13400
H557        H  0.98562061  0.24995627  0.28367392     0.26700
H558        H  0.98409294  0.24891081  0.32902744     0.26700
N559        N  0.25110839  0.26621719  0.98971250    -0.36100
N560        N  0.29059868  0.30766389  0.99009894    -0.56600
N561        N  0.24905529  0.34768049  0.99093294    -0.36100
N562        N  0.20971994  0.30596038  0.99302854    -0.56600
C563        C  0.27322197  0.25176754  0.99368447     0.27500
C564        C  0.23018169  0.25091184  0.99623259     0.27500
C565        C  0.27040282  0.36286776  0.99620549     0.27500
C566        C  0.22728936  0.36201884  0.99690435     0.27500
C567        C  0.30628251  0.28684926  0.98422740     0.36100
C568        C  0.30523720  0.32954866  0.98584193     0.36100
C569        C  0.19455864  0.28424141  0.98998800     0.36100
C570        C  0.19356302  0.32687737  0.98969955     0.36100
C571        C  0.26624050  0.22680383  0.00243718    -0.21400
C572        C  0.23908024  0.22626304  0.00404114    -0.21400
C573        C  0.26209835  0.38739175  0.00510199    -0.21400
C574        C  0.23486056  0.38685942  0.00552905    -0.21400
C575        C  0.33097988  0.29552528  0.97623843    -0.22400
C576        C  0.33035577  0.32255328  0.97732056    -0.22400
C577        C  0.16866466  0.29135794  0.98482394    -0.22400
C578        C  0.16802652  0.31835484  0.98460068    -0.22400
C579        C  0.29941000  0.26014184  0.98836771    -0.17800
C580        C  0.20326059  0.25810046  0.99380424    -0.17800
C581        C  0.20083166  0.35347591  0.99392349    -0.17800
C582        C  0.29703938  0.35565313  0.99155245    -0.17800
H583        H  0.27933905  0.21059593  0.00704190     0.15100
H584        H  0.22722987  0.20953457  0.01004993     0.15100
H585        H  0.27437758  0.40402194  0.01047897     0.15100
H586        H  0.22209434  0.40294874  0.01143506     0.15100
H587        H  0.34784551  0.28360599  0.97071351     0.13400
H588        H  0.34667235  0.33555357  0.97268790     0.13400
H589        H  0.15188659  0.27844975  0.98194670     0.13400
H590        H  0.15059845  0.33033008  0.98161897     0.13400
H591        H  0.25022685  0.28438486  0.98032479     0.26700
H592        H  0.24927144  0.32961149  0.98130988     0.26700
C593        C  0.14043685  0.15085983  0.01569019    -0.21900
C594        C  0.12807180  0.17340447  0.00586213     0.10000
C595        C  0.10074434  0.17295981  0.00060411     0.10400
C596        C  0.08628456  0.14974447  0.00553954    -0.16800
C597        C  0.09860914  0.12695692  0.01558806    -0.27300
C598        C  0.12622240  0.12773882  0.02084774     0.18800
C599        C  0.14458137  0.19723279  0.00216952     0.12700
C600        C  0.08690942  0.19704363  0.99014520    -0.11600
H601        H  0.06526497  0.14942772  0.00156479     0.13000
C602        C  0.14101322  0.10487587  0.03292785    -0.22500
H603        H  0.16144485  0.15158930  0.01978037     0.08700
C604        C  0.15150374  0.21329425  0.02400911     0.05000
C605        C  0.17049466  0.23316917  0.02063611    -0.19700
C606        C  0.18283026  0.23713911  0.99597454    -0.12000
C607        C  0.17525069  0.22163093  0.97389063     0.13700
C608        C  0.15621966  0.20179112  0.97729594    -0.22400
C609        C  0.13909586  0.20914772  0.05092153    -0.05500
H610        H  0.17610149  0.24541645  0.03737461     0.15200
C611        C  0.18697165  0.22538799  0.94660696    -0.15700
H612        H  0.15095638  0.18930531  0.96061601     0.09600
H613        H  0.13159218  0.09902879  0.05197819     0.07400
H614        H  0.16190211  0.10996045  0.03728774     0.08600
H615        H  0.14132185  0.08795295  0.01893908     0.07700
H616        H  0.09561599  0.20278590  0.97073001     0.02500
H617        H  0.08921663  0.21358894  0.00442195     0.03000
H618        H  0.06547089  0.19346571  0.98722214     0.06500
H619        H  0.14648179  0.22360256  0.06574896     0.05500
H620        H  0.14372204  0.18906870  0.05829065    -0.00300
H621        H  0.11734638  0.21141874  0.04942820     0.01200
H622        H  0.19683179  0.20690091  0.94018012     0.04900
H623        H  0.20173352  0.24149963  0.94579816     0.06800
H624        H  0.17100829  0.23016944  0.93231131     0.07700
C625        C  0.02795859  0.14956599  0.21301970    -0.21900
C626        C  0.00769563  0.14719063  0.19428398     0.10000
C627        C  0.98434912  0.16206237  0.19720785     0.10400
C628        C  0.98230688  0.18000659  0.21832218    -0.16800
C629        C  0.00289493  0.18295035  0.23670223    -0.27300
C630        C  0.02586483  0.16725666  0.23430048     0.18800
C631        C  0.01195033  0.12981106  0.17114341     0.12700
C632        C  0.96158476  0.15876874  0.17824993    -0.11600
H633        H  0.96464237  0.19187933  0.22052325     0.13000
C634        C  0.04863947  0.16892380  0.25347746    -0.22500
H635        H  0.04575003  0.13788752  0.21070630     0.08700
C636        C  0.02148485  0.13996777  0.14694717     0.05000
C637        C  0.02553725  0.12281186  0.12553594    -0.19700
C638        C  0.02111340  0.09548960  0.12786192    -0.12000
C639        C  0.01222482  0.08528939  0.15261040     0.13700
C640        C  0.00750110  0.10272699  0.17382319    -0.22400
C641        C  0.02813749  0.16879929  0.14394944    -0.05500
H642        H  0.03286638  0.13085929  0.10699533     0.15200
C643        C  0.00749522  0.05629420  0.15705327    -0.15700
H644        H  0.00056781  0.09521911  0.19275636     0.09600
H645        H  0.06695149  0.17409797  0.24249528     0.07400
H646        H  0.05141613  0.14949602  0.26321653     0.08600
H647        H  0.04573213  0.18391622  0.26923332     0.07700
H648        H  0.95459668  0.13803159  0.17872744     0.02500
H649        H  0.96782387  0.16369300  0.15771113     0.03000
H650        H  0.94473527  0.17174978  0.18361390     0.06500
H651        H  0.03572741  0.17336690  0.12374575     0.05500
H652        H  0.04358672  0.17434980  0.15855245    -0.00300
H653        H  0.01036037  0.18107329  0.14746915     0.01200
H654        H  0.99963248  0.05228860  0.17727726     0.04900
H655        H  0.02634292  0.04530044  0.15507161     0.06800
H656        H  0.99288319  0.04879428  0.14246420     0.07700
C657        C  0.21217824  0.02771492  0.15080231    -0.21900
C658        C  0.19817615  0.00493183  0.14385727     0.10000
C659        C  0.20544148  0.98037332  0.15464581     0.10400
C660        C  0.22617893  0.97928551  0.17303026    -0.16800
C661        C  0.23970942  0.00222184  0.18058107    -0.27300
C662        C  0.23298031  0.02667706  0.16902319     0.18800
C663        C  0.17459682  0.00773913  0.12698876     0.12700
C664        C  0.19100825  0.95553278  0.14704548    -0.11600
H665        H  0.23168705  0.96059075  0.18181784     0.13000
C666        C  0.24699012  0.05201515  0.17581425    -0.22500
H667        H  0.20640863  0.04652059  0.14240375     0.08700
C668        C  0.15007569  0.01437656  0.13830620     0.05000
C669        C  0.12833733  0.01819639  0.12170192    -0.19700
C670        C  0.13039770  0.01558483  0.09387889    -0.12000
C671        C  0.15511354  0.00828741  0.08264078     0.13700
C672        C  0.17690806  0.00448906  0.09946154    -0.22400
C673        C  0.14690550  0.01756260  0.16795711    -0.05500
H674        H  0.10968598  0.02378165  0.13066622     0.15200
C675        C  0.15886219  0.00413038  0.05320153    -0.15700
H676        H  0.19595186  0.99921308  0.09114143     0.09600
H677        H  0.23263582  0.06621850  0.18440561     0.07400
H678        H  0.25562674  0.06061587  0.15747212     0.08600
H679        H  0.26317953  0.04933409  0.19034305     0.07700
H680        H  0.19273053  0.95228233  0.12528128     0.02500
H681        H  0.16982088  0.95727886  0.15246294     0.03000
H682        H  0.19921966  0.93800395  0.15731475     0.06500
H683        H  0.12629741  0.02265421  0.17353788     0.05500
H684        H  0.16001626  0.03354852  0.17522727    -0.00300
H685        H  0.15217800  0.99887369  0.17808625     0.01200
H686        H  0.15599306  0.02298473  0.04244077     0.04900
H687        H  0.14463559  0.98913366  0.04589433     0.06800
H688        H  0.17906265  0.99700381  0.04843105     0.07700
C689        C  0.09824611  0.43585651  0.00845349    -0.21900
C690        C  0.10291033  0.40985824  0.00035516     0.10000
C691        C  0.08136561  0.39304650  0.99502397     0.10400
C692        C  0.05553820  0.40240559  0.99864100    -0.16800
C693        C  0.05062827  0.42824949  0.00745462    -0.27300
C694        C  0.07236882  0.44535027  0.01204872     0.18800
C695        C  0.13035736  0.39973636  0.99949871     0.12700
C696        C  0.08568638  0.36500064  0.98608565    -0.11600
H697        H  0.03904558  0.38926074  0.99504111     0.13000
C698        C  0.06864247  0.47313201  0.02203354    -0.22500
H699        H  0.11497213  0.44852776  0.01263906     0.08700
C700        C  0.14552453  0.40006853  0.97594365     0.05000
C701        C  0.16974107  0.38652436  0.97518486    -0.19700
C702        C  0.17893157  0.37271168  0.99748384    -0.12000
C703        C  0.16445901  0.37383886  0.02153648     0.13700
C704        C  0.14036706  0.38739418  0.02223439    -0.22400
C705        C  0.13568712  0.41395286  0.95147223    -0.05500
H706        H  0.18083964  0.38548307  0.95677079     0.15200
C707        C  0.17334545  0.36001218  0.04645694    -0.15700
H708        H  0.12872221  0.38735707  0.04034861     0.09600
H709        H  0.08782416  0.48310485  0.02571051     0.07400
H710        H  0.05745708  0.47293224  0.04103955     0.08600
H711        H  0.05780838  0.48493650  0.00705090     0.07700
H712        H  0.09694598  0.35405548  0.00142408     0.02500
H713        H  0.09697068  0.36475942  0.96715264     0.03000
H714        H  0.06672040  0.35451600  0.98276271     0.06500
H715        H  0.14990755  0.41225825  0.93472189     0.05500
H716        H  0.13276736  0.43519449  0.95591799    -0.00300
H717        H  0.11661502  0.40527395  0.94504879     0.01200
H718        H  0.17521846  0.37459818  0.06281839     0.04900
H719        H  0.19271250  0.35009045  0.04415807     0.06800
H720        H  0.15849062  0.34494203  0.05218344     0.07700
C721        C  0.00049854  0.36662117  0.15072120    -0.21900
C722        C  0.98871683  0.37485340  0.17447372     0.10000
C723        C  0.97553964  0.39929391  0.17551828     0.10400
C724        C  0.97338765  0.41446744  0.15225924    -0.16800
C725        C  0.98395625  0.40564492  0.12789863    -0.27300
C726        C  0.99832691  0.38157523  0.12739220     0.18800
C727        C  0.98951424  0.35669116  0.19747749     0.12700
C728        C  0.96354467  0.40915958  0.20107990    -0.11600
H729        H  0.96256326  0.43287740  0.15295624     0.13000
C730        C  0.01170719  0.37139529  0.10259820    -0.22500
H731        H  0.01087546  0.34793310  0.15032090     0.08700
C732        C  0.96949335  0.33772052  0.20139926     0.05000
C733        C  0.97199136  0.31941252  0.22208463    -0.19700
C734        C  0.99430719  0.31924526  0.23853603    -0.12000
C735        C  0.01453532  0.33807186  0.23441881     0.13700
C736        C  0.01172458  0.35676634  0.21406129    -0.22400
C737        C  0.94585374  0.33634985  0.18330847    -0.05500
H738        H  0.95666342  0.30481580  0.22522449     0.15200
C739        C  0.03954845  0.33851924  0.25057015    -0.15700
H740        H  0.02728811  0.37104781  0.21061927     0.09600
H741        H  0.99677725  0.36560301  0.08758301     0.07400
H742        H  0.02387704  0.35365474  0.10670427     0.08600
H743        H  0.02498740  0.38676910  0.09433982     0.07700
H744        H  0.97916370  0.41110943  0.21641079     0.02500
H745        H  0.94832109  0.39511883  0.20823952     0.03000
H746        H  0.95403852  0.42871219  0.19849828     0.06500
H747        H  0.93221035  0.32017495  0.18904990     0.05500
H748        H  0.95243827  0.33275569  0.16255641    -0.00300
H749        H  0.93472763  0.35516068  0.18415630     0.01200
H750        H  0.04038732  0.32258423  0.26557798     0.04900
H751        H  0.05681714  0.33613565  0.23714251     0.06800
H752        H  0.04120971  0.35770294  0.26107945     0.07700
C753        C  0.02676837  0.14396132  0.39202780    -0.21900
C754        C  0.00409041  0.13053312  0.40050397     0.10000
C755        C  0.97904832  0.14216741  0.39697693     0.10400
C756        C  0.97712393  0.16641580  0.38368173    -0.16800
C757        C  0.99967398  0.17891496  0.37344440    -0.27300
C758        C  0.02488429  0.16792824  0.37831611     0.18800
C759        C  0.00678319  0.10284874  0.40944907     0.12700
C760        C  0.95434643  0.12830593  0.40606303    -0.11600
H761        H  0.95785988  0.17481587  0.37970949     0.13000
C762        C  0.05003650  0.18028452  0.36821297    -0.22500
H763        H  0.04596800  0.13491472  0.39476241     0.08700
C764        C  0.00769744  0.08217727  0.39074615     0.05000
C765        C  0.01078491  0.05619521  0.39957384    -0.19700
C766        C  0.01324951  0.05013714  0.42677064    -0.12000
C767        C  0.01204163  0.07107639  0.44558529     0.13700
C768        C  0.00875275  0.09715598  0.43659363    -0.22400
C769        C  0.00561170  0.08760581  0.36135507    -0.05500
H770        H  0.01159854  0.04051310  0.38494808     0.15200
C771        C  0.01502860  0.06647858  0.47501930    -0.15700
H772        H  0.00804180  0.11326973  0.45074811     0.09600
H773        H  0.06005631  0.16645646  0.35435577     0.07400
H774        H  0.06335668  0.18440331  0.38522359     0.08600
H775        H  0.04669405  0.19908759  0.35756857     0.07700
H776        H  0.95518507  0.12510155  0.42786744     0.02500
H777        H  0.95258441  0.10895486  0.39588488     0.03000
H778        H  0.93635861  0.13997877  0.40156919     0.06500
H779        H  0.00652971  0.06919746  0.34941811     0.05500
H780        H  0.02211763  0.10053165  0.35493329    -0.00300
H781        H  0.98657474  0.09752552  0.35700140     0.01200
H782        H  0.03428087  0.05685215  0.47911245     0.04900
H783        H  0.99862565  0.05392706  0.48237797     0.06800
H784        H  0.01445054  0.08521765  0.48644987     0.07700
C785        C  0.21806130  0.01521516  0.35753021    -0.21900
C786        C  0.20025438  0.99409509  0.35669710     0.10000
C787        C  0.20279473  0.97468943  0.33673741     0.10400
C788        C  0.22322044  0.97677789  0.31803810    -0.16800
C789        C  0.24100473  0.99797454  0.31861672    -0.27300
C790        C  0.23836890  0.01752937  0.33860691     0.18800
C791        C  0.17781307  0.99334362  0.37555757     0.12700
C792        C  0.18368214  0.95197184  0.33496458    -0.11600
H793        H  0.22525607  0.96190087  0.30267865     0.13000
C794        C  0.25618591  0.04126607  0.34026545    -0.22500
H795        H  0.21577964  0.03023177  0.37271926     0.08700
C796        C  0.17873490  0.97841050  0.39912318     0.05000
C797        C  0.15542795  0.97454867  0.41381530    -0.19700
C798        C  0.13122195  0.98529040  0.40537989    -0.12000
C799        C  0.13097037  0.00204422  0.38277269     0.13700
C800        C  0.15430404  0.00575195  0.36818725    -0.22400
C801        C  0.20420394  0.96620697  0.40839234    -0.05500
H802        H  0.15595942  0.96218150  0.43134966     0.15200
C803        C  0.10640094  0.01626227  0.37377617    -0.15700
H804        H  0.15401538  0.01756236  0.35024644     0.09600
H805        H  0.26699897  0.04097320  0.35944255     0.07400
H806        H  0.24411442  0.05949831  0.33928045     0.08600
H807        H  0.27084976  0.04214794  0.32393096     0.07700
H808        H  0.16332858  0.95955015  0.33207881     0.02500
H809        H  0.18437176  0.94020989  0.35352586     0.03000
H810        H  0.18842693  0.93866501  0.31807102     0.06500
H811        H  0.20153963  0.95516581  0.42725364     0.05500
H812        H  0.21908691  0.98192442  0.41179693    -0.00300
H813        H  0.21182609  0.95232214  0.39314197     0.01200
H814        H  0.11068598  0.03034397  0.35744202     0.04900
H815        H  0.09787732  0.02766340  0.39058611     0.06800
H816        H  0.09165754  0.00200394  0.36609574     0.07700
C817        C  0.01865382  0.35293576  0.39814762    -0.21900
C818        C  0.99527254  0.36689774  0.40286545     0.10000
C819        C  0.97077247  0.35561205  0.39580447     0.10400
C820        C  0.97032009  0.33083130  0.38339679    -0.16800
C821        C  0.99387805  0.31793827  0.37645606    -0.27300
C822        C  0.01833023  0.32871043  0.38469194     0.18800
C823        C  0.99698194  0.39456161  0.41205608     0.12700
C824        C  0.94530190  0.37052468  0.39961732    -0.11600
H825        H  0.95168313  0.32264744  0.37675397     0.13000
C826        C  0.04448876  0.31596697  0.37840427    -0.22500
H827        H  0.03739444  0.36173684  0.40360132     0.08700
C828        C  0.99354033  0.40156026  0.43892096     0.05000
C829        C  0.99194980  0.42834187  0.44586546    -0.19700
C830        C  0.99373618  0.44826212  0.42647924    -0.12000
C831        C  0.99950341  0.44104786  0.39980495     0.13700
C832        C  0.00091429  0.41425386  0.39299601    -0.22400
C833        C  0.99124684  0.38074919  0.46010687    -0.05500
H834        H  0.98810071  0.43364487  0.46638282     0.15200
C835        C  0.00450361  0.46124443  0.37838460    -0.15700
H836        H  0.00428215  0.40855437  0.37248400     0.09600
H837        H  0.04255815  0.29734629  0.36707656     0.07400
H838        H  0.05672859  0.32968654  0.36641053     0.08600
H839        H  0.05498641  0.31152283  0.39722660     0.07700
H840        H  0.94601387  0.38926385  0.38826360     0.02500
H841        H  0.94225044  0.37503359  0.42097637     0.03000
H842        H  0.92801654  0.35902999  0.39253345     0.06500
H843        H  0.98882119  0.38956871  0.48018004     0.05500
H844        H  0.00938718  0.36846659  0.46018353    -0.00300
H845        H  0.97394277  0.36792552  0.45617864     0.01200
H846        H  0.02012963  0.47516222  0.38493145     0.04900
H847        H  0.98614311  0.47220064  0.37377207     0.06800
H848        H  0.01126746  0.45189694  0.35958548     0.07700
C849        C  0.78765760  0.53060953  0.35397396    -0.21900
C850        C  0.80349426  0.50838341  0.35823732     0.10000
C851        C  0.79750050  0.48451196  0.34515843     0.10400
C852        C  0.77613739  0.48364052  0.32742180    -0.16800
C853        C  0.76083666  0.50615176  0.32242595    -0.27300
C854        C  0.76645749  0.52986002  0.33611642     0.18800
C855        C  0.82760385  0.51129323  0.37457228     0.12700
C856        C  0.81418125  0.46029727  0.34927740    -0.11600
H857        H  0.77179337  0.46556485  0.31677889     0.13000
C858        C  0.75111337  0.55489705  0.33170167    -0.22500
H859        H  0.79245534  0.54893578  0.36398592     0.08700
C860        C  0.85056438  0.52276449  0.36378071     0.05000
C861        C  0.87306610  0.52522142  0.37963394    -0.19700
C862        C  0.87322960  0.51695332  0.40630531    -0.12000
C863        C  0.84993687  0.50581904  0.41729637     0.13700
C864        C  0.82748350  0.50285686  0.40109776    -0.22400
C865        C  0.85137088  0.53244095  0.33546902    -0.05500
H866        H  0.89056777  0.53422628  0.37115750     0.15200
C867        C  0.84853957  0.49674419  0.44577031    -0.15700
H868        H  0.80963312  0.49418528  0.40917906     0.09600
H869        H  0.76461526  0.57045181  0.32417899     0.07400
H870        H  0.74237684  0.56154923  0.35082503     0.08600
H871        H  0.73485687  0.55255795  0.31718553     0.07700
H872        H  0.81375214  0.45456625  0.37055919     0.02500
H873        H  0.83488266  0.46441511  0.34326518     0.03000
H874        H  0.80691250  0.44334865  0.33735743     0.06500
H875        H  0.87103685  0.54059785  0.33013591     0.05500
H876        H  0.83653863  0.54828397  0.33266011    -0.00300
H877        H  0.84697558  0.51591664  0.32168294     0.01200
H878        H  0.82926737  0.48732400  0.45038604     0.04900
H879        H  0.85080483  0.51383740  0.45936750     0.06800
H880        H  0.86433198  0.48208507  0.44965208     0.07700
C881        C  0.79005795  0.51869600  0.14636266    -0.21900
C882        C  0.80851087  0.49822609  0.14822207     0.10000
C883        C  0.80654619  0.47976933  0.16907792     0.10400
C884        C  0.78542678  0.48153391  0.18703074    -0.16800
C885        C  0.76662464  0.50173363  0.18499123    -0.27300
C886        C  0.76930568  0.52094216  0.16476567     0.18800
C887        C  0.83003311  0.49637231  0.12837821     0.12700
C888        C  0.82685203  0.45833107  0.17242835    -0.11600
H889        H  0.78355059  0.46713692  0.20282443     0.13000
C890        C  0.75100322  0.54422713  0.16231810    -0.22500
H891        H  0.79200177  0.53311460  0.13059591     0.08700
C892        C  0.82753011  0.48058302  0.10545971     0.05000
C893        C  0.84958955  0.47670665  0.08893710    -0.19700
C894        C  0.87429004  0.48785771  0.09513111    -0.12000
C895        C  0.87623978  0.50486592  0.11756444     0.13700
C896        C  0.85398975  0.50896413  0.13373588    -0.22400
C897        C  0.80174619  0.46725457  0.09894800    -0.05500
H898        H  0.84777880  0.46388544  0.07178962     0.15200
C899        C  0.90153164  0.51882229  0.12486360    -0.15700
H900        H  0.85551895  0.52125316  0.15131789     0.09600
H901        H  0.74064479  0.54336387  0.14290990     0.07400
H902        H  0.76266295  0.56273751  0.16332464     0.08600
H903        H  0.73596025  0.54510161  0.17830786     0.07700
H904        H  0.84662863  0.46727675  0.17549393     0.02500
H905        H  0.82740248  0.44567052  0.15443010     0.03000
H906        H  0.82239780  0.44561587  0.18981954     0.06500
H907        H  0.80306328  0.45562948  0.08027212     0.05500
H908        H  0.78604669  0.48231928  0.09649719    -0.00300
H909        H  0.79607972  0.45366132  0.11526156     0.01200
H910        H  0.89854797  0.53298783  0.14145639     0.04900
H911        H  0.90907446  0.53007225  0.10752212     0.06800
H912        H  0.91654727  0.50438134  0.13155028     0.07700
C913        C  0.14267697  0.61189601  0.47189139    -0.21900
C914        C  0.13273322  0.59994139  0.49490293     0.10000
C915        C  0.14808326  0.59957849  0.51825195     0.10400
C916        C  0.17238141  0.61292855  0.51859929    -0.16800
C917        C  0.18140259  0.62658583  0.49610575    -0.27300
C918        C  0.16686213  0.62525719  0.47218250     0.18800
C919        C  0.10534191  0.58984842  0.49443458     0.12700
C920        C  0.13826021  0.58608795  0.54299464    -0.11600
H921        H  0.18357041  0.61414926  0.53690343     0.13000
C922        C  0.17573913  0.63874196  0.44703470    -0.22500
H923        H  0.13091698  0.61179501  0.45389945     0.08700
C924        C  0.08371810  0.60699201  0.49797889     0.05000
C925        C  0.05799573  0.59725006  0.49485775    -0.19700
C926        C  0.05329768  0.57073189  0.48811338    -0.12000
C927        C  0.07519540  0.55337414  0.48545593     0.13700
C928        C  0.10091862  0.56324817  0.48870513    -0.22400
C929        C  0.08785910  0.63568603  0.50461579    -0.05500
H930        H  0.04146031  0.61062640  0.49713564     0.15200
C931        C  0.07197381  0.52476935  0.47795979    -0.15700
H932        H  0.11777163  0.55034196  0.48601654     0.09600
H933        H  0.16098587  0.65385759  0.44125960     0.07400
H934        H  0.17742213  0.62395614  0.43082592     0.08600
H935        H  0.19519839  0.64853533  0.44907992     0.07700
H936        H  0.13504746  0.56482937  0.53885087     0.02500
H937        H  0.11934425  0.59510149  0.54949823     0.03000
H938        H  0.15262307  0.58780369  0.55956244     0.06500
H939        H  0.06882845  0.64632707  0.50692696     0.05500
H940        H  0.09925376  0.64542182  0.48851528    -0.00300
H941        H  0.09894013  0.63746195  0.52355337     0.01200
H942        H  0.06147350  0.52313436  0.45867257     0.04900
H943        H  0.06077562  0.51424355  0.49368009     0.06800
H944        H  0.09131434  0.51467409  0.47574983     0.07700
C945        C  0.14936594  0.78522686  0.47078186    -0.21900
C946        C  0.14223404  0.80106878  0.49244859     0.10000
C947        C  0.15344901  0.79630858  0.51763430     0.10400
C948        C  0.17269951  0.77658218  0.52029103    -0.16800
C949        C  0.18066028  0.76143562  0.49834798    -0.27300
C950        C  0.16835395  0.76531919  0.47342653     0.18800
C951        C  0.12551797  0.82445905  0.48756854     0.12700
C952        C  0.14530648  0.81230894  0.54151604    -0.11600
H953        H  0.18181836  0.77312404  0.53944151     0.13000
C954        C  0.17512050  0.74920939  0.44915448    -0.22500
H955        H  0.14064712  0.78897698  0.45148417     0.08700
C956        C  0.13719364  0.84870966  0.48079121     0.05000
C957        C  0.12109268  0.87058995  0.47619293    -0.19700
C958        C  0.09336556  0.86893326  0.47769474    -0.12000
C959        C  0.08162458  0.84431997  0.48420864     0.13700
C960        C  0.09796601  0.82241291  0.48920644    -0.22400
C961        C  0.16673990  0.85142426  0.47806655    -0.05500
H962        H  0.13040449  0.88908165  0.47087405     0.15200
C963        C  0.05213106  0.84087291  0.48631527    -0.15700
H964        H  0.08927143  0.80355563  0.49429616     0.09600
H965        H  0.18256325  0.76241548  0.43323746     0.07400
H966        H  0.15711322  0.73898248  0.44193439     0.08600
H967        H  0.19040700  0.73406869  0.45294101     0.07700
H968        H  0.12377755  0.80993812  0.54499303     0.02500
H969        H  0.14974081  0.83346278  0.53813513     0.03000
H970        H  0.15586188  0.80594245  0.55973656     0.06500
H971        H  0.17262407  0.87179188  0.47256712     0.05500
H972        H  0.17405099  0.83787635  0.46234383    -0.00300
H973        H  0.17645704  0.84646931  0.49716413     0.01200
H974        H  0.04672702  0.82064055  0.49274673     0.04900
H975        H  0.04281902  0.84423129  0.46666057     0.06800
H976        H  0.04396446  0.85492101  0.50114323     0.07700
C977        C  0.01913555  0.84896796  0.09164081    -0.21900
C978        C  0.99922076  0.86775132  0.09583425     0.10000
C979        C  0.97678332  0.86084623  0.11097767     0.10400
C980        C  0.97548176  0.83581561  0.12282279    -0.16800
C981        C  0.99645977  0.81781941  0.12051765    -0.27300
C982        C  0.01821381  0.82418694  0.10403956     0.18800
C983        C  0.00389842  0.89541067  0.08723200     0.12700
C984        C  0.95504636  0.88047840  0.11603228    -0.11600
H985        H  0.95898996  0.83100948  0.13570600     0.13000
C986        C  0.04153776  0.80608719  0.10049514    -0.22500
H987        H  0.03634230  0.85431327  0.07997223     0.08700
C988        C  0.02056548  0.91214674  0.10203502     0.05000
C989        C  0.02461145  0.93817147  0.09357783    -0.19700
C990        C  0.01248377  0.94820412  0.07051479    -0.12000
C991        C  0.99532291  0.93138504  0.05592778     0.13700
C992        C  0.99129198  0.90522978  0.06453029    -0.22400
C993        C  0.03394160  0.90259818  0.12699391    -0.05500
H994        H  0.03774489  0.95064971  0.10501008     0.15200
C995        C  0.98070436  0.94078837  0.03167737    -0.15700
H996        H  0.97826464  0.89229943  0.05348111     0.09600
H997        H  0.05964089  0.81593955  0.10798760     0.07400
H998        H  0.04416879  0.80158330  0.07905083     0.08600
H999        H  0.03930790  0.78714764  0.11117578     0.07700
H1000       H  0.94612805  0.88658667  0.09687570     0.02500
H1001       H  0.96317458  0.89808849  0.12628916     0.03000
H1002       H  0.93916844  0.87207346  0.12870872     0.06500
H1003       H  0.04585191  0.91836693  0.13652617     0.05500
H1004       H  0.04738071  0.88597063  0.12223346    -0.00300
H1005       H  0.01886042  0.89589068  0.14154073     0.01200
H1006       H  0.99489646  0.94558991  0.01556881     0.04900
H1007       H  0.96875140  0.95845191  0.03673442     0.06800
H1008       H  0.96706697  0.92548414  0.02387427     0.07700
C1009       C  0.97141410  0.63971269  0.10047607    -0.21900
C1010       C  0.99494844  0.63168449  0.08822091     0.10000
C1011       C  0.01710464  0.64852325  0.08860696     0.10400
C1012       C  0.01587676  0.67213204  0.10324921    -0.16800
C1013       C  0.99299590  0.67901171  0.11748083    -0.27300
C1014       C  0.97015238  0.66315098  0.11516525     0.18800
C1015       C  0.99668870  0.60406985  0.07876077     0.12700
C1016       C  0.04226982  0.64095497  0.07458875    -0.11600
H1017       H  0.03331197  0.68439911  0.10502416     0.13000
C1018       C  0.94460307  0.66972043  0.12905641    -0.22500
H1019       H  0.95435416  0.62679559  0.09991453     0.08700
C1020       C  0.00183281  0.58354787  0.09688141     0.05000
C1021       C  0.99907847  0.55730997  0.08863018    -0.19700
C1022       C  0.99142842  0.55091381  0.06255757    -0.12000
C1023       C  0.98816787  0.57165603  0.04382276     0.13700
C1024       C  0.99066492  0.59800406  0.05231385    -0.22400
C1025       C  0.00960928  0.58939938  0.12519901    -0.05500
H1026       H  0.00221607  0.54168173  0.10293982     0.15200
C1027       C  0.98093965  0.56651323  0.01521996    -0.15700
H1028       H  0.98700721  0.61398327  0.03852875     0.09600
H1029       H  0.93971665  0.65392742  0.14351097     0.07400
H1030       H  0.92850873  0.67108052  0.11416846     0.08600
H1031       H  0.94538653  0.68874222  0.13989300     0.07700
H1032       H  0.03835067  0.63835805  0.05303637     0.02500
H1033       H  0.04996801  0.62219394  0.08282850     0.03000
H1034       H  0.05774868  0.65629511  0.07692141     0.06500
H1035       H  0.01313872  0.57108339  0.13671210     0.05500
H1036       H  0.99369944  0.60064960  0.13531374    -0.00300
H1037       H  0.02806474  0.60121171  0.12543614     0.01200
H1038       H  0.96185922  0.55578539  0.01416193     0.04900
H1039       H  0.99670980  0.55477955  0.00543401     0.06800
H1040       H  0.97874154  0.58510267  0.00380351     0.07700
C1041       C  0.99647541  0.59791571  0.32138761    -0.21900
C1042       C  0.99155140  0.62505439  0.32268340     0.10000
C1043       C  0.98385417  0.63650794  0.34701353     0.10400
C1044       C  0.98101574  0.62052641  0.36953366    -0.16800
C1045       C  0.98523014  0.59310495  0.36842337    -0.27300
C1046       C  0.99339387  0.58170378  0.34390073     0.18800
C1047       C  0.99412747  0.64136701  0.29837568     0.12700
C1048       C  0.97815817  0.66560886  0.34909773    -0.11600
H1049       H  0.97469010  0.62955757  0.38800877     0.13000
C1050       C  0.99931485  0.55270623  0.34116622    -0.22500
H1051       H  0.00254211  0.58938722  0.30257564     0.08700
C1052       C  0.01771089  0.65497111  0.29247232     0.05000
C1053       C  0.01821394  0.67279296  0.27114497    -0.19700
C1054       C  0.99570464  0.67715314  0.25552507    -0.12000
C1055       C  0.97236597  0.66270543  0.26082168     0.13700
C1056       C  0.97191233  0.64494739  0.28219692    -0.22400
C1057       C  0.04218498  0.65087500  0.30890730    -0.05500
H1058       H  0.03608213  0.68378771  0.26689859     0.15200
C1059       C  0.94743856  0.66607408  0.24487332    -0.15700
H1060       H  0.95383754  0.63442282  0.28680530     0.09600
H1061       H  0.00704463  0.54778017  0.32108574     0.07400
H1062       H  0.98105300  0.54099071  0.34417074     0.08600
H1063       H  0.01447502  0.54683252  0.35592825     0.07700
H1064       H  0.96180187  0.67089894  0.33545322     0.02500
H1065       H  0.99599289  0.67711538  0.34364307     0.03000
H1066       H  0.97226273  0.67137616  0.36957079     0.06500
H1067       H  0.05894976  0.66298031  0.30156896     0.05500
H1068       H  0.04811593  0.62982671  0.30803451    -0.00300
H1069       H  0.03831592  0.65640558  0.32990277     0.01200
H1070       H  0.94200104  0.64695445  0.23561045     0.04900
H1071       H  0.94936054  0.68088656  0.22883292     0.06800
H1072       H  0.93115605  0.67247727  0.25820686     0.07700
C1073       C  0.01527509  0.89790531  0.31622904    -0.21900
C1074       C  0.00988028  0.87114817  0.32038176     0.10000
C1075       C  0.00796353  0.86142182  0.34647367     0.10400
C1076       C  0.01200149  0.87854992  0.36794114    -0.16800
C1077       C  0.01830284  0.90539507  0.36422517    -0.27300
C1078       C  0.01953531  0.91523999  0.33774075     0.18800
C1079       C  0.00780233  0.85302973  0.29734682     0.12700
C1080       C  0.00207374  0.83274333  0.35166006    -0.11600
H1081       H  0.01072839  0.87054429  0.38784586     0.13000
C1082       C  0.02560893  0.94368139  0.33164648    -0.22500
H1083       H  0.01666025  0.90510530  0.29599755     0.08700
C1084       C  0.98336691  0.84751013  0.28511169     0.05000
C1085       C  0.98213627  0.82810191  0.26520336    -0.19700
C1086       C  0.00479495  0.81413242  0.25743440    -0.12000
C1087       C  0.02935896  0.82011409  0.26929522     0.13700
C1088       C  0.03053465  0.83953207  0.28910265    -0.22400
C1089       C  0.95866463  0.86193038  0.29326168    -0.05500
H1090       H  0.96343818  0.82362522  0.25576702     0.15200
C1091       C  0.05462243  0.80636193  0.26159267    -0.15700
H1092       H  0.04925064  0.84381110  0.29861660     0.09600
H1093       H  0.02529621  0.94766959  0.30994219     0.07400
H1094       H  0.04561827  0.94881097  0.33898791     0.08600
H1095       H  0.01060473  0.95662498  0.34109163     0.07700
H1096       H  0.01769986  0.82023902  0.34264703     0.02500
H1097       H  0.98271511  0.82741668  0.34284933     0.03000
H1098       H  0.00124820  0.82832061  0.37325699     0.06500
H1099       H  0.94124222  0.85523648  0.28169309     0.05500
H1100       H  0.96127932  0.88338897  0.28986389    -0.00300
H1101       H  0.95455049  0.85847164  0.31465003     0.01200
H1102       H  0.06900456  0.82109228  0.25403836     0.04900
H1103       H  0.05182321  0.79122307  0.24594751     0.06800
H1104       H  0.06311997  0.79649479  0.27930062     0.07700
C1105       C  0.11172545  0.03003857  0.85608461    -0.21900
C1106       C  0.09798862  0.00786480  0.86528100     0.10000
C1107       C  0.09650934  0.98516416  0.84910211     0.10400
C1108       C  0.11076720  0.98433735  0.82506032    -0.16800
C1109       C  0.12630761  0.00580282  0.81691503    -0.27300
C1110       C  0.12579257  0.02935362  0.83204107     0.18800
C1111       C  0.08808932  0.00795011  0.89310753     0.12700
C1112       C  0.08075104  0.96153489  0.85779614    -0.11600
H1113       H  0.11109883  0.96635945  0.81340446     0.13000
C1114       C  0.14084181  0.05367382  0.82392085    -0.22500
H1115       H  0.11252630  0.04759268  0.86838243     0.08700
C1116       C  0.10496528  0.00122974  0.91432026     0.05000
C1117       C  0.09576781  0.00334727  0.94057303    -0.19700
C1118       C  0.07006879  0.01224812  0.94632184    -0.12000
C1119       C  0.05300232  0.01857085  0.92489271     0.13700
C1120       C  0.06224266  0.01620225  0.89855494    -0.22400
C1121       C  0.13292858  0.99233302  0.90921825    -0.05500
H1122       H  0.10899800  0.99857541  0.95677708     0.15200
C1123       C  0.02558970  0.02920490  0.92951437    -0.15700
H1124       H  0.04951267  0.02150052  0.88211918     0.09600
H1125       H  0.15595560  0.05833707  0.83917984     0.07400
H1126       H  0.12697204  0.07053598  0.82228901     0.08600
H1127       H  0.15090753  0.05143782  0.80446052     0.07700
H1128       H  0.05975135  0.96724874  0.86049711     0.02500
H1129       H  0.08855033  0.95390946  0.87689883     0.03000
H1130       H  0.08163731  0.94539908  0.84287936     0.06500
H1131       H  0.14350320  0.98782074  0.92798489     0.05500
H1132       H  0.14403726  0.00807019  0.89872301    -0.00300
H1133       H  0.13284844  0.97425904  0.89675599     0.01200
H1134       H  0.02659154  0.04741286  0.94175560     0.04900
H1135       H  0.01330690  0.01420577  0.93975953     0.06800
H1136       H  0.01559552  0.03423671  0.91056131     0.07700
C1137       C  0.10550190  0.97223876  0.64257460    -0.21900
C1138       C  0.10091828  0.99585207  0.62888164     0.10000
C1139       C  0.10889980  0.01995661  0.64044796     0.10400
C1140       C  0.12342871  0.01966416  0.66425018    -0.16800
C1141       C  0.12953145  0.99586101  0.67703005    -0.27300
C1142       C  0.11946691  0.97196053  0.66665980     0.18800
C1143       C  0.09037971  0.99441082  0.60132282     0.12700
C1144       C  0.10228078  0.04589281  0.62756135    -0.11600
H1145       H  0.13087749  0.03797340  0.67245582     0.13000
C1146       C  0.12397369  0.94579590  0.68001568    -0.22500
H1147       H  0.09902698  0.95377195  0.63388187     0.08700
C1148       C  0.10766554  0.99450623  0.57931262     0.05000
C1149       C  0.09744345  0.99120859  0.55363034    -0.19700
C1150       C  0.07033952  0.98682227  0.54909961    -0.12000
C1151       C  0.05296821  0.98675700  0.57134088     0.13700
C1152       C  0.06325138  0.99072456  0.59711841    -0.22400
C1153       C  0.13715030  0.99680185  0.58296477    -0.05500
H1154       H  0.11101955  0.99127448  0.53695513     0.15200
C1155       C  0.02387453  0.98132776  0.56841553    -0.15700
H1156       H  0.05018188  0.99023327  0.61419786     0.09600
H1157       H  0.13548443  0.93272290  0.66660200     0.07400
H1158       H  0.10463274  0.93639905  0.68433723     0.08600
H1159       H  0.13480112  0.94762285  0.69905885     0.07700
H1160       H  0.08051515  0.04782372  0.62586179     0.02500
H1161       H  0.11112116  0.04705296  0.60742436     0.03000
H1162       H  0.10974313  0.06282892  0.63938139     0.06500
H1163       H  0.14785649  0.99591324  0.56369565     0.05500
H1164       H  0.14433639  0.98035493  0.59555527    -0.00300
H1165       H  0.14219707  0.01576871  0.59266022     0.01200
H1166       H  0.01362365  0.98106005  0.58795675     0.04900
H1167       H  0.02087093  0.96178877  0.55891488     0.06800
H1168       H  0.01456384  0.99693061  0.55617566     0.07700
C1169       C  0.86045835  0.11569815  0.03153153    -0.21900
C1170       C  0.87067631  0.10094415  0.01029274     0.10000
C1171       C  0.85581886  0.09837268  0.98672292     0.10400
C1172       C  0.83173666  0.11193300  0.98431975    -0.16800
C1173       C  0.82237907  0.12812817  0.00491094    -0.27300
C1174       C  0.83650403  0.12937161  0.02913727     0.18800
C1175       C  0.89817259  0.09092363  0.01205569     0.12700
C1176       C  0.86605586  0.08236344  0.96369257    -0.11600
H1177       H  0.82094632  0.11117240  0.96575141     0.13000
C1178       C  0.82740350  0.14586911  0.05234910    -0.22500
H1179       H  0.87186113  0.11754469  0.04966005     0.08700
C1180       C  0.91980124  0.10773483  0.00707709     0.05000
C1181       C  0.94559256  0.09787373  0.00919854    -0.19700
C1182       C  0.95048382  0.07145383  0.01605150    -0.12000
C1183       C  0.92860572  0.05450217  0.02079185     0.13700
C1184       C  0.90274866  0.06452212  0.01869989    -0.22400
C1185       C  0.91561682  0.13613950  0.99941317    -0.05500
H1186       H  0.96209383  0.11100124  0.00557031     0.15200
C1187       C  0.93215108  0.02616771  0.02903879    -0.15700
H1188       H  0.88597044  0.05179265  0.02249920     0.09600
H1189       H  0.84222697  0.16147147  0.05648154     0.07400
H1190       H  0.82533701  0.13318778  0.07019635     0.08600
H1191       H  0.80806520  0.15547042  0.04884131     0.07700
H1192       H  0.86876603  0.06156928  0.96994877     0.02500
H1193       H  0.88529844  0.09042976  0.95689599     0.03000
H1194       H  0.85219450  0.08265105  0.94661839     0.06500
H1195       H  0.93461508  0.14650349  0.99586365     0.05500
H1196       H  0.90498682  0.14668006  0.01554952    -0.00300
H1197       H  0.90378119  0.13717327  0.98088972     0.01200
H1198       H  0.91293619  0.01638185  0.03307786     0.04900
H1199       H  0.94410527  0.02516054  0.04748922     0.06800
H1200       H  0.94206200  0.01493395  0.01292173     0.07700
C1201       C  0.89703119  0.32637751  0.00166954    -0.21900
C1202       C  0.86985944  0.32861363  0.00618638     0.10000
C1203       C  0.85913264  0.35279475  0.01464689     0.10400
C1204       C  0.87602996  0.37415035  0.01921336    -0.16800
C1205       C  0.90352416  0.37205110  0.01539348    -0.27300
C1206       C  0.91408045  0.34780861  0.00597765     0.18800
C1207       C  0.85281935  0.30535350  0.00220421     0.12700
C1208       C  0.82979872  0.35609107  0.01865338    -0.11600
H1209       H  0.86760349  0.39253241  0.02619820     0.13000
C1210       C  0.94300627  0.34428422  0.99981366    -0.22500
H1211       H  0.90489659  0.30768121  0.99483383     0.08700
C1212       C  0.84405645  0.29793422  0.97668142     0.05000
C1213       C  0.82637319  0.27684045  0.97416114    -0.19700
C1214       C  0.81735146  0.26321346  0.99661448    -0.12000
C1215       C  0.82641062  0.27042273  0.02216462     0.13700
C1216       C  0.84420343  0.29138868  0.02460567    -0.22400
C1217       C  0.85289284  0.31265771  0.95227235    -0.05500
H1218       H  0.81921849  0.27115065  0.95468562     0.15200
C1219       C  0.81728217  0.25684411  0.04718817    -0.15700
H1220       H  0.85097340  0.29729329  0.04416792     0.09600
H1221       H  0.94716210  0.32461096  0.99103283     0.07400
H1222       H  0.95482159  0.34591594  0.01828657     0.08600
H1223       H  0.94947576  0.35940041  0.98524913     0.07700
H1224       H  0.82272594  0.34243930  0.03434318     0.02500
H1225       H  0.81930304  0.35170263  0.99979811     0.03000
H1226       H  0.82463603  0.37648375  0.02480282     0.06500
H1227       H  0.84382563  0.30450034  0.93393440     0.05500
H1228       H  0.87467022  0.31125780  0.95019906    -0.00300
H1229       H  0.84713559  0.33370655  0.95397421     0.01200
H1230       H  0.83457576  0.24835587  0.05765276     0.04900
H1231       H  0.80305921  0.24067534  0.04338763     0.06800
H1232       H  0.80752560  0.27140975  0.06045516     0.07700
C1233       C  0.40105791  0.99468114  0.08222407    -0.21900
C1234       C  0.41760019  0.00264938  0.10298282     0.10000
C1235       C  0.44321459  0.01194336  0.09723777     0.10400
C1236       C  0.45101048  0.01486819  0.07055415    -0.16800
C1237       C  0.43359522  0.00895234  0.04960842    -0.27300
C1238       C  0.40862073  0.99775686  0.05559374     0.18800
C1239       C  0.40626825  0.00331250  0.13012824     0.12700
C1240       C  0.46205168  0.01911034  0.11921535    -0.11600
H1241       H  0.47029594  0.02301915  0.06607880     0.13000
C1242       C  0.38976470  0.98892801  0.03416868    -0.22500
H1243       H  0.38158099  0.98710507  0.08693918     0.08700
C1244       C  0.39315552  0.02607671  0.13950857     0.05000
C1245       C  0.37850247  0.02474251  0.16315232    -0.19700
C1246       C  0.37619569  0.00103834  0.17726744    -0.12000
C1247       C  0.39007361  0.97848734  0.16837873     0.13700
C1248       C  0.40507108  0.97995288  0.14491686    -0.22400
C1249       C  0.39337811  0.05134993  0.12378003    -0.05500
H1250       H  0.36756786  0.04185516  0.16992480     0.15200
C1251       C  0.38844982  0.95234426  0.18244838    -0.15700
H1252       H  0.41486545  0.96243903  0.13744217     0.09600
H1253       H  0.37237439  0.97851805  0.04261602     0.07400
H1254       H  0.39992374  0.97513657  0.02038045     0.08600
H1255       H  0.38217770  0.00614197  0.02298923     0.07700
H1256       H  0.46564482  0.00159016  0.13189265     0.02500
H1257       H  0.45363412  0.03510519  0.13165942     0.03000
H1258       H  0.48134380  0.02596931  0.11127680     0.06500
H1259       H  0.38172867  0.06707067  0.13374270     0.05500
H1260       H  0.38471296  0.04791721  0.10381851    -0.00300
H1261       H  0.41391522  0.05857704  0.12142804     0.01200
H1262       H  0.37994210  0.93735261  0.16883053     0.04900
H1263       H  0.37605731  0.95301933  0.20061552     0.06800
H1264       H  0.40857548  0.94601193  0.18836376     0.07700
C1265       C  0.28815207  0.02695742  0.85093711    -0.21900
C1266       C  0.30385166  0.00487698  0.85639603     0.10000
C1267       C  0.29804586  0.98053224  0.84416786     0.10400
C1268       C  0.27743980  0.97911882  0.82560304    -0.16800
C1269       C  0.26241980  0.00146679  0.81930242    -0.27300
C1270       C  0.26736653  0.02554468  0.83261082     0.18800
C1271       C  0.32784651  0.00835407  0.87281248     0.12700
C1272       C  0.31399493  0.95627288  0.85033052    -0.11600
H1273       H  0.27330024  0.96065792  0.81556895     0.13000
C1274       C  0.25154728  0.05018027  0.82751054    -0.22500
H1275       H  0.29266063  0.04560657  0.86046272     0.08700
C1276       C  0.35144886  0.01761021  0.86128794     0.05000
C1277       C  0.37372230  0.02125841  0.87731621    -0.19700
C1278       C  0.37311723  0.01598100  0.90477866    -0.12000
C1279       C  0.34954773  0.00578006  0.91614122     0.13700
C1280       C  0.32716195  0.00221469  0.89995089    -0.22400
C1281       C  0.35310334  0.02368249  0.83199816    -0.05500
H1282       H  0.39160755  0.02889762  0.86831064     0.15200
C1283       C  0.34791683  0.99789326  0.94496419    -0.15700
H1284       H  0.30899686  0.99466438  0.90845892     0.09600
H1285       H  0.23571360  0.04733705  0.81261473     0.07400
H1286       H  0.24216421  0.05681094  0.84633364     0.08600
H1287       H  0.26484104  0.06598245  0.82015883     0.07700
H1288       H  0.31241817  0.95169775  0.87185018     0.02500
H1289       H  0.33504063  0.95965879  0.84514935     0.03000
H1290       H  0.30692034  0.93886607  0.83898125     0.06500
H1291       H  0.37314176  0.03044470  0.82612881     0.05500
H1292       H  0.33884670  0.03948567  0.82689187    -0.00300
H1293       H  0.34838032  0.00573044  0.82028575     0.01200
H1294       H  0.35005980  0.01546619  0.95792068     0.04900
H1295       H  0.36367514  0.98338438  0.94953384     0.06800
H1296       H  0.32862193  0.98862455  0.94979236     0.07700
C1297       C  0.35808386  0.21683984  0.00789238    -0.21900
C1298       C  0.35946857  0.19965649  0.98608584     0.10000
C1299       C  0.34167941  0.20289428  0.96474274     0.10400
C1300       C  0.32266439  0.22303704  0.96585295    -0.16800
C1301       C  0.32084378  0.23990386  0.98791192    -0.27300
C1302       C  0.33895914  0.23690305  0.00913125     0.18800
C1303       C  0.37789673  0.17686420  0.98689188     0.12700
C1304       C  0.34234376  0.18463718  0.94109486    -0.11600
H1305       H  0.30882638  0.22541782  0.94962536     0.13000
C1306       C  0.33826274  0.25402305  0.03363010    -0.22500
H1307       H  0.37159947  0.21416398  0.02435431     0.08700
C1308       C  0.40286955  0.17745570  0.97447872     0.05000
C1309       C  0.41784859  0.15414457  0.97281967    -0.19700
C1310       C  0.40838980  0.13009424  0.98315798    -0.12000
C1311       C  0.38400081  0.13016135  0.99724717     0.13700
C1312       C  0.36920750  0.15354905  0.99889173    -0.22400
C1313       C  0.41350415  0.20258930  0.96268659    -0.05500
H1314       H  0.43659364  0.15457010  0.96240692     0.15200
C1315       C  0.37315773  0.10587352  0.01065927    -0.15700
H1316       H  0.35017847  0.15346270  0.00880691     0.09600
H1317       H  0.35724637  0.26482276  0.03545865     0.07400
H1318       H  0.33550251  0.24146577  0.05147463     0.08600
H1319       H  0.32206536  0.26868228  0.03340573     0.07700
H1320       H  0.33878266  0.16406234  0.94766806     0.02500
H1321       H  0.36188229  0.18575567  0.93115488     0.03000
H1322       H  0.32701160  0.18982075  0.92624535     0.06500
H1323       H  0.43338372  0.19969810  0.95378280     0.05500
H1324       H  0.41510480  0.21784432  0.97844571    -0.00300
H1325       H  0.40010449  0.20983286  0.94689222     0.01200
H1326       H  0.35521841  0.11035249  0.02257621     0.04900
H1327       H  0.38816051  0.09755051  0.02434695     0.06800
H1328       H  0.36741229  0.09095854  0.99559902     0.07700
C1329       C  0.58867685  0.10704693  0.98394462    -0.21900
C1330       C  0.60704456  0.08864794  0.99304068     0.10000
C1331       C  0.59862241  0.06303162  0.99959117     0.10400
C1332       C  0.57188886  0.05613869  0.99612783    -0.16800
C1333       C  0.55330927  0.07425676  0.98595957    -0.27300
C1334       C  0.56207559  0.10036912  0.98011150     0.18800
C1335       C  0.63509255  0.09699090  0.99429259     0.12700
C1336       C  0.61797666  0.04294961  0.00976137    -0.11600
H1337       H  0.56568589  0.03625427  0.00085631     0.13000
C1338       C  0.54414740  0.12152211  0.96921746    -0.22500
H1339       H  0.59550259  0.12673539  0.97910984     0.08700
C1340       C  0.65099463  0.09709765  0.97118844     0.05000
C1341       C  0.67518532  0.11061781  0.97141360    -0.19700
C1342       C  0.68348929  0.12436696  0.99409110    -0.12000
C1343       C  0.66855649  0.12261101  0.01777119     0.13700
C1344       C  0.64446946  0.10885563  0.01762647    -0.22400
C1345       C  0.64176556  0.08408561  0.94593149    -0.05500
H1346       H  0.68672922  0.11211767  0.95331238     0.15200
C1347       C  0.67747322  0.13635085  0.04275036    -0.15700
H1348       H  0.63217506  0.10868084  0.03528495     0.09600
H1349       H  0.55467921  0.14050332  0.96624256     0.07400
H1350       H  0.52771330  0.12535302  0.98333636     0.08600
H1351       H  0.53632909  0.11545281  0.94953434     0.07700
H1352       H  0.62713297  0.05021792  0.02841948     0.02500
H1353       H  0.63368840  0.03957005  0.99472176     0.03000
H1354       H  0.60826000  0.02377957  0.01398826     0.06500
H1355       H  0.65659538  0.08595403  0.92974863     0.05500
H1356       H  0.62313603  0.09335469  0.93908586    -0.00300
H1357       H  0.63826952  0.06279400  0.94954542     0.01200
H1358       H  0.66349262  0.13305956  0.05945464     0.04900
H1359       H  0.69710341  0.12870718  0.04876843     0.06800
H1360       H  0.67893951  0.15789862  0.03924668     0.31700
C1361       C  0.49299662  0.10338801  0.82259117    -0.21900
C1362       C  0.49197075  0.13073014  0.82611149     0.10000
C1363       C  0.48664558  0.14126090  0.85144172     0.10400
C1364       C  0.48275910  0.12414978  0.87290607    -0.16800
C1365       C  0.48344450  0.09653927  0.86970095    -0.27300
C1366       C  0.48853490  0.08605754  0.84393988     0.18800
C1367       C  0.49560437  0.14818747  0.80288272     0.12700
C1368       C  0.48468829  0.17061504  0.85571760    -0.11600
H1369       H  0.47856919  0.13258002  0.89225840     0.13000
C1370       C  0.48928088  0.05684790  0.83844930    -0.22500
H1371       H  0.49693078  0.09561931  0.80289246     0.08700
C1372       C  0.52073698  0.15779940  0.79564279     0.05000
C1373       C  0.52283559  0.17607211  0.77484630    -0.19700
C1374       C  0.50041181  0.18450272  0.76093292    -0.12000
C1375       C  0.47534974  0.17407892  0.76755986     0.13700
C1376       C  0.47325473  0.15617164  0.78864816    -0.22400
C1377       C  0.54523053  0.14879114  0.80989833    -0.05500
H1378       H  0.54202298  0.18384097  0.76934824     0.15200
C1379       C  0.45051232  0.18148690  0.75293590    -0.15700
H1380       H  0.45401447  0.14856534  0.79422707     0.09600
H1381       H  0.49441676  0.05253111  0.81741268     0.07400
H1382       H  0.46957055  0.04804719  0.84228988     0.08600
H1383       H  0.50439026  0.04730164  0.85116001     0.07700
H1384       H  0.46859973  0.17879484  0.84324844     0.02500
H1385       H  0.50361541  0.18019177  0.85016820     0.03000
H1386       H  0.48032113  0.17559835  0.87677690     0.06500
H1387       H  0.56329575  0.15813014  0.80161695     0.05500
H1388       H  0.54729596  0.12709450  0.80786981    -0.00300
H1389       H  0.54387224  0.15397859  0.83129532     0.01200
H1390       H  0.44147131  0.16349772  0.74423879     0.04900
H1391       H  0.45406711  0.19566318  0.73658147     0.06800
H1392       H  0.43626879  0.19056201  0.76703548     0.07700
C1393       C  0.40647610  0.97624909  0.34824245    -0.21900
C1394       C  0.40852635  0.99926683  0.36356790     0.10000
C1395       C  0.39721522  0.02289560  0.35420081     0.10400
C1396       C  0.38215558  0.02245641  0.33080700    -0.16800
C1397       C  0.37835720  0.99893763  0.31661214    -0.27300
C1398       C  0.39151536  0.97577787  0.32480731     0.18800
C1399       C  0.41813986  0.99692815  0.39128495     0.12700
C1400       C  0.40018780  0.04825280  0.36948710    -0.11600
H1401       H  0.37215651  0.04018530  0.32428711     0.13000
C1402       C  0.38907291  0.95001971  0.31006912    -0.22500
H1403       H  0.41523872  0.95814018  0.35548279     0.08700
C1404       C  0.40029848  0.99076350  0.41184516     0.05000
C1405       C  0.40971911  0.98724196  0.43770796    -0.19700
C1406       C  0.43680109  0.98915151  0.44388528    -0.12000
C1407       C  0.45472893  0.99584066  0.42307257     0.13700
C1408       C  0.44505004  0.99970829  0.39705934    -0.22400
C1409       C  0.37120524  0.98730102  0.40638458    -0.05500
H1410       H  0.39559401  0.98233779  0.45311801     0.15200
C1411       C  0.48400963  0.99846986  0.42764282    -0.15700
H1412       H  0.45855593  0.00444925  0.38102175     0.09600
H1413       H  0.40900751  0.94317798  0.30396099     0.07400
H1414       H  0.38003933  0.93500189  0.32329501     0.08600
H1415       H  0.37680274  0.95153540  0.29192130     0.07700
H1416       H  0.42146194  0.05320720  0.37132387     0.02500
H1417       H  0.39153106  0.04615670  0.38965313     0.03000
H1418       H  0.39012025  0.06489585  0.35938896     0.06500
H1419       H  0.35998119  0.98234129  0.42469305     0.05500
H1420       H  0.36822566  0.97108137  0.39185971    -0.00300
H1421       H  0.36287145  0.00578287  0.39815278     0.01200
H1422       H  0.49470832  0.00385053  0.40912699     0.04900
H1423       H  0.49221072  0.97944378  0.43469459     0.06800
H1424       H  0.48786127  0.01419835  0.44249971     0.07700
C1425       C  0.36970795  0.84907567  0.49607708    -0.21900
C1426       C  0.37711627  0.82539321  0.50809953     0.10000
C1427       C  0.40176399  0.82365495  0.52094625     0.10400
C1428       C  0.41780246  0.84624882  0.52287538    -0.16800
C1429       C  0.40968046  0.87068669  0.51238689    -0.27300
C1430       C  0.38554930  0.87173197  0.49793555     0.18800
C1431       C  0.35788869  0.80328019  0.50806327     0.12700
C1432       C  0.41085821  0.79807658  0.53299035    -0.11600
H1433       H  0.43630384  0.84498155  0.53357615     0.13000
C1434       C  0.37607287  0.89642226  0.48425472    -0.22500
H1435       H  0.35091251  0.85000495  0.48583688     0.08700
C1436       C  0.33873793  0.80084750  0.52835583     0.05000
C1437       C  0.31964305  0.78083367  0.52669787    -0.19700
C1438       C  0.31897521  0.76341765  0.50501125    -0.12000
C1439       C  0.33807547  0.76603116  0.48453493     0.13700
C1440       C  0.35742606  0.78580389  0.48647420    -0.22400
C1441       C  0.33824546  0.81964432  0.55156126    -0.05500
H1442       H  0.30500304  0.77882020  0.54231279     0.15200
C1443       C  0.33829464  0.74876369  0.46012914    -0.15700
H1444       H  0.37190707  0.78799534  0.47072768     0.09600
H1445       H  0.37067424  0.91164534  0.49915117     0.07400
H1446       H  0.35818920  0.89269474  0.47206131     0.08600
H1447       H  0.39169554  0.90400762  0.47076481     0.07700
H1448       H  0.41200103  0.78268296  0.51732013     0.02500
H1449       H  0.39673316  0.79163835  0.54857455     0.03000
H1450       H  0.43067086  0.80000677  0.54222126     0.06500
H1451       H  0.32197224  0.81500687  0.56563116     0.05500
H1452       H  0.33536724  0.84009518  0.54431083    -0.00300
H1453       H  0.35717089  0.81850194  0.56257591     0.01200
H1454       H  0.33686232  0.76127021  0.44209974     0.04900
H1455       H  0.32167567  0.73458132  0.45954987     0.06800
H1456       H  0.35705989  0.73747629  0.45934519     0.07700
C1457       C  0.32846706  0.98157929  0.59901157    -0.21900
C1458       C  0.33215923  0.99000978  0.62528553     0.10000
C1459       C  0.35787438  0.99573123  0.63422810     0.10400
C1460       C  0.37940656  0.99220027  0.61697068    -0.16800
C1461       C  0.37614951  0.98274058  0.59080024    -0.27300
C1462       C  0.35001904  0.97784459  0.58159954     0.18800
C1463       C  0.30909639  0.99140947  0.64365266     0.12700
C1464       C  0.36262967  0.00532892  0.66217139    -0.11600
H1465       H  0.39905360  0.99641160  0.62432717     0.13000
C1466       C  0.34441445  0.96800968  0.55388230    -0.22500
H1467       H  0.30858739  0.97731106  0.59231491     0.08700
C1468       C  0.29229903  0.01359347  0.64465477     0.05000
C1469       C  0.27163279  0.01437585  0.66343996    -0.19700
C1470       C  0.26721305  0.99329667  0.68101377    -0.12000
C1471       C  0.28363554  0.97077151  0.67939219     0.13700
C1472       C  0.30444623  0.97023209  0.66090613    -0.22400
C1473       C  0.29637262  0.03643809  0.62603729    -0.05500
H1474       H  0.25892437  0.03152520  0.66454761     0.15200
C1475       C  0.27959860  0.94682780  0.69661929    -0.15700
H1476       H  0.31722564  0.95311043  0.65995195     0.09600
H1477       H  0.35150984  0.98258366  0.53906087     0.07400
H1478       H  0.32294553  0.96511783  0.55045914     0.08600
H1479       H  0.35425615  0.94872175  0.55060733     0.07700
H1480       H  0.35582568  0.99028078  0.67663809     0.02500
H1481       H  0.35161406  0.02394605  0.66558879     0.03000
H1482       H  0.38388893  0.00918244  0.66593389     0.06500
H1483       H  0.28166015  0.05230653  0.62951357     0.05500
H1484       H  0.29437028  0.02961504  0.60515857    -0.00300
H1485       H  0.31640155  0.04485777  0.62892964     0.01200
H1486       H  0.27626956  0.92931211  0.68379413     0.04900
H1487       H  0.26242203  0.94860208  0.71017233     0.06800
H1488       H  0.29749462  0.94347577  0.70886275     0.07700
C1489       C  0.49364038  0.09759076  0.55981335    -0.21900
C1490       C  0.50401943  0.10188100  0.58522587     0.10000
C1491       C  0.51115138  0.08007005  0.60101806     0.10400
C1492       C  0.50730596  0.05441202  0.59117948    -0.16800
C1493       C  0.49599965  0.04987664  0.56605954    -0.27300
C1494       C  0.48901227  0.07195177  0.55015527     0.18800
C1495       C  0.50400335  0.12901861  0.59638056     0.12700
C1496       C  0.52199880  0.08389807  0.62863780    -0.11600
H1497       H  0.51246826  0.03771312  0.60353769     0.13000
C1498       C  0.47480472  0.06972884  0.52391588    -0.22500
H1499       H  0.48768882  0.11443100  0.54800588     0.08700
C1500       C  0.52630537  0.14567404  0.59506317     0.05000
C1501       C  0.52600142  0.16987512  0.60879990    -0.19700
C1502       C  0.50388638  0.17764291  0.62377301    -0.12000
C1503       C  0.48101851  0.16159078  0.62370698     0.13700
C1504       C  0.48140586  0.13750837  0.61003190    -0.22400
C1505       C  0.55056716  0.13755839  0.57979810    -0.05500
H1506       H  0.54353074  0.18213710  0.60901656     0.15200
C1507       C  0.45631794  0.16876863  0.63883724    -0.15700
H1508       H  0.46422130  0.12477073  0.61081388     0.09600
H1509       H  0.48750540  0.07778288  0.50785306     0.07400
H1510       H  0.45627890  0.08141771  0.52478477     0.08600
H1511       H  0.46904481  0.04942271  0.51855136     0.07700
H1512       H  0.50736727  0.09452229  0.64114307     0.02500
H1513       H  0.54051086  0.09557211  0.62775003     0.03000
H1514       H  0.52647342  0.06479416  0.63838532     0.06500
H1515       H  0.56625484  0.15283215  0.58081418     0.05500
H1516       H  0.54539731  0.13442939  0.55859324    -0.00300
H1517       H  0.55863420  0.11897105  0.58805901     0.01200
H1518       H  0.43928602  0.16917646  0.62498955     0.04900
H1519       H  0.45754822  0.18838330  0.64848910     0.06800
H1520       H  0.45253704  0.15378450  0.65445791     0.07700
C1521       C  0.35090314  0.59762239  0.52122804    -0.21900
C1522       C  0.36739844  0.59767616  0.49881442     0.10000
C1523       C  0.35918723  0.61080172  0.47554342     0.10400
C1524       C  0.33546383  0.62514956  0.47583329    -0.16800
C1525       C  0.32000825  0.62682170  0.49896942    -0.27300
C1526       C  0.32739708  0.61224677  0.52170572     0.18800
C1527       C  0.39496267  0.58826734  0.50191599     0.12700
C1528       C  0.37611929  0.61068977  0.45090868    -0.11600
H1529       H  0.32970909  0.63638341  0.45847713     0.13000
C1530       C  0.31185216  0.61301547  0.54726664    -0.22500
H1531       H  0.35733923  0.58761369  0.53910659     0.08700
C1532       C  0.41453940  0.60550577  0.51153667     0.05000
C1533       C  0.44025257  0.59615824  0.51544126    -0.19700
C1534       C  0.44726392  0.56975981  0.51013665    -0.12000
C1535       C  0.42744087  0.55252299  0.49998359     0.13700
C1536       C  0.40156253  0.56208758  0.49606267    -0.22400
C1537       C  0.40818978  0.63387833  0.51794943    -0.05500
H1538       H  0.45489644  0.60975391  0.52306603     0.15200
C1539       C  0.43299271  0.52408482  0.49332286    -0.15700
H1540       H  0.38630006  0.54905151  0.48862595     0.09600
H1541       H  0.32442534  0.62111328  0.56339148     0.07400
H1542       H  0.30568803  0.59271866  0.55267869     0.08600
H1543       H  0.29382874  0.62531480  0.54595809     0.07700
H1544       H  0.37906156  0.59009390  0.44403766     0.02500
H1545       H  0.39563391  0.61966368  0.45525049     0.03000
H1546       H  0.36687287  0.62201588  0.43450657     0.06500
H1547       H  0.42575958  0.64474063  0.52531131     0.05500
H1548       H  0.39271910  0.63479918  0.53358636    -0.00300
H1549       H  0.40094684  0.64406514  0.49987000     0.01200
H1550       H  0.43923301  0.51333764  0.51145481     0.04900
H1551       H  0.44864461  0.52288146  0.47788667     0.06800
H1552       H  0.41524137  0.51392324  0.48538286     0.07700
C1553       C  0.60416181  0.50227594  0.41311350    -0.21900
C1554       C  0.58517901  0.50426188  0.39307901     0.10000
C1555       C  0.55843122  0.50758725  0.39998902     0.10400
C1556       C  0.55147389  0.51057620  0.42694869    -0.16800
C1557       C  0.57074693  0.51039567  0.44717652    -0.27300
C1558       C  0.59744831  0.50527913  0.44000951     0.18800
C1559       C  0.59465627  0.50483662  0.36517751     0.12700
C1560       C  0.53742609  0.50837131  0.37887850    -0.11600
H1561       H  0.53097948  0.51403983  0.43209087     0.13000
C1562       C  0.61921897  0.50286120  0.46029012    -0.22500
H1563       H  0.62463375  0.49929163  0.40750079     0.08700
C1564       C  0.60392050  0.52856982  0.35385890     0.05000
C1565       C  0.61822971  0.52774871  0.32995381    -0.19700
C1566       C  0.62370787  0.50369884  0.31733495    -0.12000
C1567       C  0.61288737  0.48014084  0.32771367     0.13700
C1568       C  0.59842512  0.48101013  0.35155514    -0.22400
C1569       C  0.59992341  0.55458015  0.36779430    -0.05500
H1570       H  0.62672103  0.54570691  0.32200510     0.15200
C1571       C  0.61760267  0.45367704  0.31494442    -0.15700
H1572       H  0.59135909  0.46282065  0.36033883     0.09600
H1573       H  0.62297818  0.52220547  0.46986725     0.07400
H1574       H  0.63811519  0.49645888  0.45107729     0.08600
H1575       H  0.61374600  0.48797368  0.47548800     0.07700
H1576       H  0.53756837  0.48957549  0.36754069     0.02500
H1577       H  0.54125629  0.52493656  0.36501492     0.03000
H1578       H  0.51743729  0.51105749  0.38758924     0.06500
H1579       H  0.60843191  0.57120287  0.35626904     0.05500
H1580       H  0.60961952  0.55421650  0.38755993    -0.00300
H1581       H  0.57849653  0.55834151  0.37048064     0.01200
H1582       H  0.62843540  0.44074537  0.32897254     0.04900
H1583       H  0.62922088  0.45501013  0.29629440     0.06800
H1584       H  0.59834709  0.44440833  0.31007590     0.07700
C1585       C  0.52910385  0.35035124  0.59142751    -0.21900
C1586       C  0.50711399  0.36686431  0.59473004     0.10000
C1587       C  0.48504111  0.35766361  0.60915395     0.10400
C1588       C  0.48617292  0.33281357  0.62139956    -0.16800
C1589       C  0.50903436  0.31718639  0.61989215    -0.27300
C1590       C  0.53046143  0.32572356  0.60404617     0.18800
C1591       C  0.50920854  0.39484319  0.58624280     0.12700
C1592       C  0.46099357  0.37472191  0.61296070    -0.11600
H1593       H  0.46992611  0.32636364  0.63385823     0.13000
C1594       C  0.55566464  0.31016910  0.60153576    -0.22500
H1595       H  0.54603437  0.35746720  0.58032891     0.08700
C1596       C  0.52386008  0.41304201  0.60144046     0.05000
C1597       C  0.52582286  0.43925384  0.59294678    -0.19700
C1598       C  0.51349177  0.44810351  0.56951478    -0.12000
C1599       C  0.49836886  0.42978395  0.55447671     0.13700
C1600       C  0.49641243  0.40341074  0.56312982    -0.22400
C1601       C  0.53728624  0.40486969  0.62687210    -0.05500
H1602       H  0.53753497  0.45283977  0.60465998     0.15200
C1603       C  0.48388517  0.43771755  0.52961454    -0.15700
H1604       H  0.48498083  0.38931277  0.55174393     0.09600
H1605       H  0.57231756  0.32185574  0.60973192     0.07400
H1606       H  0.55961416  0.30594848  0.58023889     0.08600
H1607       H  0.55490281  0.29108442  0.61219346     0.07700
H1608       H  0.45219977  0.37942212  0.59334236     0.02500
H1609       H  0.46659852  0.39333119  0.62313725     0.03000
H1610       H  0.44570129  0.36473247  0.62518631     0.06500
H1611       H  0.54737722  0.42170850  0.63667449     0.05500
H1612       H  0.55236648  0.38955539  0.62266525    -0.00300
H1613       H  0.52244330  0.39685748  0.64098591     0.01200
H1614       H  0.49818941  0.44361056  0.51398118     0.04900
H1615       H  0.47028144  0.45431784  0.53405017     0.06800
H1616       H  0.47191066  0.42123715  0.52148161     0.07700
C1617       C  0.66170187  0.29708632  0.95494808    -0.21900
C1618       C  0.64474478  0.30155629  0.97654809     0.10000
C1619       C  0.64551214  0.28448262  0.99863675     0.10400
C1620       C  0.66385162  0.26372734  0.99898719    -0.16800
C1621       C  0.68139696  0.25971382  0.97772988    -0.27300
C1622       C  0.68003343  0.27635582  0.95522901     0.18800
C1623       C  0.62708694  0.32487446  0.97597426     0.12700
C1624       C  0.62736329  0.28855381  0.02201581    -0.11600
H1625       H  0.66503987  0.25097427  0.01620889     0.13000
C1626       C  0.69773420  0.27293058  0.93135790    -0.22500
H1627       H  0.66092066  0.31016072  0.93793767     0.08700
C1628       C  0.63620224  0.34996476  0.98367037     0.05000
C1629       C  0.61922404  0.37174422  0.98179259    -0.19700
C1630       C  0.59318729  0.36926998  0.97215641    -0.12000
C1631       C  0.58400705  0.34369961  0.96490939     0.13700
C1632       C  0.60112298  0.32193885  0.96700388    -0.22400
C1633       C  0.66397821  0.35374851  0.99369688    -0.05500
H1634       H  0.62662865  0.39094690  0.98757047     0.15200
C1635       C  0.55659297  0.33890352  0.95431846    -0.15700
H1636       H  0.59438321  0.30248297  0.96120309     0.09600
H1637       H  0.70986888  0.29095460  0.92859470     0.07400
H1638       H  0.71124673  0.25585235  0.93314452     0.08600
H1639       H  0.68545106  0.26983451  0.91336391     0.07700
H1640       H  0.60651108  0.28710285  0.01541111     0.02500
H1641       H  0.63080463  0.30833029  0.03082495     0.03000
H1642       H  0.63064497  0.27355021  0.03771782     0.06500
H1643       H  0.66797475  0.37462129  0.99902338     0.05500
H1644       H  0.67833666  0.34778763  0.97810784    -0.00300
H1645       H  0.66714325  0.34150433  0.01167960     0.01200
H1646       H  0.55321804  0.31779044  0.94952324     0.04900
H1647       H  0.55358483  0.35029942  0.93574919     0.06800
H1648       H  0.54169332  0.34468295  0.96944929     0.07700
C1649       C  0.52962123  0.40367086  0.81471813    -0.21900
C1650       C  0.51724336  0.37907833  0.81650123     0.10000
C1651       C  0.50573399  0.37108586  0.84067024     0.10400
C1652       C  0.50722509  0.38776068  0.86280276    -0.16800
C1653       C  0.52064446  0.41204623  0.86170627    -0.27300
C1654       C  0.53163509  0.42030775  0.83701967     0.18800
C1655       C  0.51830707  0.36082645  0.79363588     0.12700
C1656       C  0.49283808  0.34441796  0.84340799    -0.11600
H1657       H  0.49860832  0.38124563  0.88139911     0.13000
C1658       C  0.54655348  0.44586712  0.83403057    -0.22500
H1659       H  0.53849843  0.40943665  0.79598007     0.08700
C1660       C  0.49695717  0.35825154  0.77588998     0.05000
C1661       C  0.49740901  0.33799345  0.75692506    -0.19700
C1662       C  0.51884876  0.32056267  0.75524802    -0.12000
C1663       C  0.54085870  0.32405746  0.77210009     0.13700
C1664       C  0.54023984  0.34414670  0.79121916    -0.22400
C1665       C  0.47374933  0.37676680  0.77708279    -0.05500
H1666       H  0.48085342  0.33546650  0.74353376     0.15200
C1667       C  0.56514194  0.30696938  0.77049060    -0.15700
H1668       H  0.55669162  0.34641712  0.80479898     0.09600
H1669       H  0.55419709  0.44855535  0.81349974     0.07400
H1670       H  0.56375868  0.44614277  0.84767571     0.08600
H1671       H  0.53330301  0.46274441  0.83843590     0.07700
H1672       H  0.50745412  0.32868707  0.83902162     0.02500
H1673       H  0.47609274  0.34265439  0.82934427     0.03000
H1674       H  0.48509139  0.34113931  0.86380176     0.06500
H1675       H  0.45885647  0.37205243  0.76160739     0.05500
H1676       H  0.48064472  0.39728952  0.77386152    -0.00300
H1677       H  0.46395532  0.37549375  0.79677610     0.01200
H1678       H  0.58264490  0.31949139  0.76628742     0.04900
H1679       H  0.56392024  0.29179991  0.75466635     0.06800
H1680       H  0.56811842  0.29677887  0.78976504     0.07700
C1681       C  0.56841855  0.50752119  0.09251256    -0.21900
C1682       C  0.59111072  0.49434673  0.10139881     0.10000
C1683       C  0.60441805  0.47716139  0.08384007     0.10400
C1684       C  0.59464346  0.47326188  0.05805288    -0.16800
C1685       C  0.57174742  0.48611205  0.04887964    -0.27300
C1686       C  0.55853527  0.50369417  0.06652447     0.18800
C1687       C  0.60138922  0.49890108  0.12883506     0.12700
C1688       C  0.62934333  0.46316819  0.09214602    -0.11600
H1689       H  0.60504925  0.45977991  0.04500995     0.13000
C1690       C  0.53441744  0.51895036  0.05818848    -0.22500
H1691       H  0.55841077  0.52087143  0.10601505     0.08700
C1692       C  0.61634840  0.52153886  0.13522653     0.05000
C1693       C  0.63012930  0.52255009  0.15948237    -0.19700
C1694       C  0.62962823  0.50130011  0.17738487    -0.12000
C1695       C  0.61347420  0.47925732  0.17159711     0.13700
C1696       C  0.59928434  0.47854950  0.14760402    -0.22400
C1697       C  0.61886279  0.54402250  0.11588430    -0.05500
H1698       H  0.64253496  0.53940382  0.16390654     0.15200
C1699       C  0.61189177  0.45550394  0.18946636    -0.15700
H1700       H  0.58775413  0.46119268  0.14274416     0.09600
H1701       H  0.52759713  0.53260543  0.07405490     0.07400
H1702       H  0.51792575  0.50520310  0.05385722     0.08600
H1703       H  0.53899429  0.53093251  0.04030942     0.07700
H1704       H  0.62514615  0.44969092  0.10897470     0.02500
H1705       H  0.64442666  0.47783291  0.09831448     0.03000
H1706       H  0.63779657  0.45119162  0.07571264     0.06500
H1707       H  0.63171614  0.55996132  0.12374484     0.05500
H1708       H  0.59908821  0.55255840  0.11191298    -0.00300
H1709       H  0.62756953  0.53683790  0.09694242     0.01200
H1710       H  0.59110961  0.45247383  0.19582959     0.04900
H1711       H  0.62417899  0.45734778  0.20755346     0.06800
H1712       H  0.61866200  0.43778621  0.17840854     0.07700
C1713       C  0.40136646  0.43880116  0.99626482    -0.21900
C1714       C  0.39410108  0.41282209  0.99034331     0.10000
C1715       C  0.41345415  0.39496532  0.98132883     0.10400
C1716       C  0.43961031  0.40351666  0.97810782    -0.16800
C1717       C  0.44726019  0.42975720  0.98336972    -0.27300
C1718       C  0.42762815  0.44759313  0.99291809     0.18800
C1719       C  0.36618613  0.40418060  0.99324930     0.12700
C1720       C  0.40637599  0.36680139  0.97478960    -0.11600
H1721       H  0.45409175  0.38946975  0.97097647     0.13000
C1722       C  0.43373904  0.47596222  0.99935696    -0.22500
H1723       H  0.38631204  0.45231170  0.00329691     0.08700
C1724       C  0.35731148  0.39160596  0.01661961     0.05000
C1725       C  0.33333860  0.37765122  0.01624027    -0.19700
C1726       C  0.31803742  0.37618720  0.99304179    -0.12000
C1727       C  0.32571519  0.39088102  0.97045086     0.13700
C1728       C  0.34975773  0.40469829  0.97083466    -0.22400
C1729       C  0.37376383  0.39194578  0.04150854    -0.05500
H1730       H  0.32726313  0.36653003  0.03358715     0.15200
C1731       C  0.30976081  0.39116782  0.94521373    -0.15700
H1732       H  0.35650717  0.41456856  0.95296930     0.09600
H1733       H  0.44886756  0.47697528  0.01526363     0.07400
H1734       H  0.41601898  0.48671309  0.00659679     0.08600
H1735       H  0.44089791  0.48626783  0.98127682     0.07700
H1736       H  0.39143323  0.36636483  0.95867750     0.02500
H1737       H  0.39815092  0.35691798  0.99265111     0.03000
H1738       H  0.42381845  0.35534929  0.96800587     0.06500
H1739       H  0.36398782  0.38114467  0.05800285     0.05500
H1740       H  0.37692762  0.41263670  0.04798429    -0.00300
H1741       H  0.39319812  0.38256645  0.03766740     0.01200
H1742       H  0.30434486  0.41179304  0.94029905     0.04900
H1743       H  0.29124637  0.37961689  0.94674767     0.06800
H1744       H  0.32170457  0.38285538  0.92868340     0.07700
C1745       C  0.85706334  0.89647589  0.51704402    -0.21900
C1746       C  0.87010288  0.89799084  0.49248221     0.10000
C1747       C  0.85846908  0.88655864  0.46973646     0.10400
C1748       C  0.83447475  0.87299096  0.47225600    -0.16800
C1749       C  0.82215038  0.87020492  0.49706538    -0.27300
C1750       C  0.83316194  0.88266171  0.51963533     0.18800
C1751       C  0.89726631  0.90879516  0.49138458     0.12700
C1752       C  0.87204715  0.88754481  0.44307824    -0.11600
H1753       H  0.82604619  0.86315312  0.45511016     0.13000
C1754       C  0.82081883  0.88067919  0.54682624    -0.22500
H1755       H  0.86613154  0.90518090  0.53447707     0.08700
C1756       C  0.90244775  0.93520025  0.48449296     0.05000
C1757       C  0.92875119  0.94339836  0.48076142    -0.19700
C1758       C  0.94996248  0.92571683  0.48384125    -0.12000
C1759       C  0.94457904  0.89956288  0.49226912     0.13700
C1760       C  0.91830663  0.89151445  0.49586358    -0.22400
C1761       C  0.88019256  0.95454498  0.48095994    -0.05500
H1762       H  0.93269190  0.96349310  0.47465021     0.15200
C1763       C  0.96628672  0.88004205  0.49802654    -0.15700
H1764       H  0.91404522  0.87135277  0.50157191     0.09600
H1765       H  0.81667055  0.90077340  0.55453434     0.07400
H1766       H  0.83468186  0.87062758  0.56054665     0.08600
H1767       H  0.80196853  0.86956119  0.54677714     0.07700
H1768       H  0.89156269  0.87766926  0.44431748     0.02500
H1769       H  0.87494358  0.90833729  0.43693447     0.03000
H1770       H  0.86031425  0.87746774  0.42744205     0.06500
H1771       H  0.88759299  0.97445786  0.47563322     0.05500
H1772       H  0.86882338  0.95618576  0.49978641    -0.00300
H1773       H  0.86678507  0.94776158  0.46492794     0.01200
H1774       H  0.98041364  0.88864287  0.51249741     0.04900
H1775       H  0.97678483  0.87462657  0.47943976     0.06800
H1776       H  0.95841297  0.86152180  0.50672689     0.07700
C1777       C  0.64421441  0.88654487  0.47017126    -0.21900
C1778       C  0.63579019  0.89946630  0.49330322     0.10000
C1779       C  0.65217238  0.89961271  0.51599670     0.10400
C1780       C  0.67594945  0.88541901  0.51554108    -0.16800
C1781       C  0.68336313  0.87080005  0.49307286    -0.27300
C1782       C  0.66785829  0.87217609  0.46975846     0.18800
C1783       C  0.60797350  0.90824898  0.49507196     0.12700
C1784       C  0.64378627  0.91339993  0.54118327    -0.11600
H1785       H  0.68788317  0.88418605  0.53335940     0.13000
C1786       C  0.67506431  0.85762578  0.44464486    -0.22500
H1787       H  0.63152759  0.88640304  0.45283556     0.08700
C1788       C  0.60018284  0.93446568  0.49056830     0.05000
C1789       C  0.57382460  0.94179893  0.49550685    -0.19700
C1790       C  0.55491150  0.92337490  0.50454080    -0.12000
C1791       C  0.56274029  0.89650438  0.50712966     0.13700
C1792       C  0.58914099  0.88953020  0.50251678    -0.22400
C1793       C  0.61967078  0.95456478  0.48054461    -0.05500
H1794       H  0.56818284  0.96219873  0.49273041     0.15200
C1795       C  0.54389585  0.87474737  0.51485696    -0.15700
H1796       H  0.59540718  0.86928600  0.50533699     0.09600
H1797       H  0.67666924  0.87185573  0.42797785     0.07400
H1798       H  0.65945115  0.84298668  0.43992755     0.08600
H1799       H  0.69417625  0.84709166  0.44615182     0.07700
H1800       H  0.62492125  0.90492950  0.54851642     0.02500
H1801       H  0.64103199  0.93473821  0.53732025     0.03000
H1802       H  0.65876264  0.91127459  0.55713399     0.06500
H1803       H  0.61033735  0.97417561  0.47781204     0.05500
H1804       H  0.62772821  0.94805230  0.46106939    -0.00300
H1805       H  0.63617364  0.95677369  0.49483610     0.01200
H1806       H  0.52715798  0.87403297  0.50065171     0.04900
H1807       H  0.53655405  0.87790409  0.53541333     0.06800
H1808       H  0.55352763  0.85507996  0.51446338     0.07700
C1809       C  0.66130073  0.69833627  0.52599829    -0.21900
C1810       C  0.64519454  0.69398014  0.50380780     0.10000
C1811       C  0.64756860  0.71042394  0.48136073     0.10400
C1812       C  0.66691321  0.73025976  0.48119069    -0.16800
C1813       C  0.68340458  0.73431705  0.50322897    -0.27300
C1814       C  0.68023978  0.71846647  0.52611865     0.18800
C1815       C  0.62620364  0.67183460  0.50474409     0.12700
C1816       C  0.62946196  0.70727396  0.45786478    -0.11600
H1817       H  0.66920106  0.74272617  0.46386154     0.13000
C1818       C  0.69624388  0.72241385  0.55104894    -0.22500
H1819       H  0.65907335  0.68588122  0.54336095     0.08700
C1820       C  0.63309042  0.64663371  0.49531123     0.05000
C1821       C  0.61560495  0.62556055  0.49925781    -0.19700
C1822       C  0.59166683  0.62871934  0.51330125    -0.12000
C1823       C  0.58478311  0.65439563  0.52258816     0.13700
C1824       C  0.60202031  0.67554719  0.51765713    -0.22400
C1825       C  0.65938019  0.64176027  0.48206186    -0.05500
H1826       H  0.62118921  0.60619494  0.49206325     0.15200
C1827       C  0.56073211  0.66081019  0.53916543    -0.15700
H1828       H  0.59714667  0.69500958  0.52515738     0.09600
H1829       H  0.70766310  0.70424446  0.55534737     0.07400
H1830       H  0.68275071  0.72647141  0.56799352     0.08600
H1831       H  0.71030360  0.73909067  0.54965239     0.07700
H1832       H  0.60867737  0.71004854  0.46434562     0.02500
H1833       H  0.63164238  0.68731631  0.44912741     0.03000
H1834       H  0.63383102  0.72195752  0.44210582     0.06500
H1835       H  0.66182902  0.62077976  0.47623670     0.05500
H1836       H  0.67561430  0.64696335  0.49591416    -0.00300
H1837       H  0.66118668  0.65394454  0.46387243     0.01200
H1838       H  0.56709390  0.67030767  0.55800352     0.04900
H1839       H  0.54855082  0.64384550  0.54492249     0.06800
H1840       H  0.54801058  0.67485951  0.52816063     0.07700
C1841       C  0.84171605  0.69476999  0.51885539    -0.21900
C1842       C  0.85659210  0.69208891  0.49550969     0.10000
C1843       C  0.85390390  0.71075126  0.47493972     0.10400
C1844       C  0.83601943  0.73161734  0.47806089    -0.16800
C1845       C  0.82061783  0.73399407  0.50115035    -0.27300
C1846       C  0.82378684  0.71559819  0.52200932     0.18800
C1847       C  0.87345153  0.66856061  0.49213228     0.12700
C1848       C  0.86934624  0.70817394  0.44943720    -0.11600
H1849       H  0.83342664  0.74573945  0.46213172     0.13000
C1850       C  0.80845903  0.71726076  0.54766053    -0.22500
H1851       H  0.84383241  0.68028890  0.53453619     0.08700
C1852       C  0.90043853  0.66871457  0.49885502     0.05000
C1853       C  0.91581551  0.64626324  0.49364265    -0.19700
C1854       C  0.90462127  0.62345465  0.48244441    -0.12000
C1855       C  0.87721170  0.62325545  0.47632979     0.13700
C1856       C  0.86210040  0.64589719  0.48121219    -0.22400
C1857       C  0.91288433  0.69251118  0.51163268    -0.05500
H1858       H  0.93665097  0.64646844  0.49851291     0.15200
C1859       C  0.86372374  0.59979744  0.46377841    -0.15700
H1860       H  0.84128702  0.64611317  0.47618969     0.09600
H1861       H  0.82242574  0.71851477  0.56459946     0.07400
H1862       H  0.79612541  0.69931008  0.54997750     0.08600
H1863       H  0.79533442  0.73470609  0.54867778     0.07700
H1864       H  0.86437121  0.68924646  0.43953828     0.02500
H1865       H  0.89082927  0.70862753  0.45369284     0.03000
H1866       H  0.86484925  0.72444291  0.43541505     0.06500
H1867       H  0.93418483  0.68933128  0.51573891     0.05500
H1868       H  0.90280893  0.69681992  0.53077244    -0.00300
H1869       H  0.91101967  0.70985317  0.49836572     0.01200
H1870       H  0.84273657  0.60398555  0.45899255     0.04900
H1871       H  0.86388622  0.58283479  0.47767315     0.06800
H1872       H  0.87385435  0.59437774  0.44495356     0.07700
C1873       C  0.52589513  0.86416543  0.88831494    -0.21900
C1874       C  0.50437059  0.86852473  0.90529701     0.10000
C1875       C  0.48557957  0.84825317  0.90909567     0.10400
C1876       C  0.48775266  0.82481638  0.89432248    -0.16800
C1877       C  0.50809162  0.82140245  0.87565959    -0.27300
C1878       C  0.52807009  0.84082515  0.87351526     0.18800
C1879       C  0.49936968  0.89584928  0.91463498     0.12700
C1880       C  0.46273824  0.85174912  0.92800106    -0.11600
H1881       H  0.47257410  0.80984078  0.89602478     0.13000
C1882       C  0.55119517  0.83808298  0.85481840    -0.22500
H1883       H  0.54026049  0.87974417  0.88533826     0.08700
C1884       C  0.51441448  0.90819603  0.93468219     0.05000
C1885       C  0.50942328  0.93480023  0.94110467    -0.19700
C1886       C  0.49002161  0.94944352  0.92757117    -0.12000
C1887       C  0.47479481  0.93664868  0.90761713     0.13700
C1888       C  0.47983159  0.91019928  0.90145881    -0.22400
C1889       C  0.53549256  0.89324602  0.94935810    -0.05500
H1890       H  0.52093181  0.94427140  0.95654259     0.15200
C1891       C  0.45260839  0.95021016  0.89301500    -0.15700
H1892       H  0.46854894  0.90055957  0.88592887     0.09600
H1893       H  0.56987058  0.84006469  0.86616762     0.07400
H1894       H  0.55035787  0.85385648  0.83956352     0.08600
H1895       H  0.55166823  0.81874940  0.84453773     0.07700
H1896       H  0.45003231  0.86830889  0.92145948     0.02500
H1897       H  0.47033024  0.85597243  0.94825120     0.03000
H1898       H  0.45026559  0.83376465  0.92903744     0.06500
H1899       H  0.54510579  0.90564271  0.96477059     0.05500
H1900       H  0.55096576  0.88653906  0.93524148    -0.00300
H1901       H  0.52662146  0.87582449  0.95928759     0.01200
H1902       H  0.46056606  0.96624200  0.88034183     0.04900
H1903       H  0.43809988  0.95829017  0.90746133     0.06800
H1904       H  0.44182017  0.93645644  0.87969683     0.07700
C1905       C  0.48434360  0.64994711  0.90473635    -0.21900
C1906       C  0.50677454  0.63374884  0.90358364     0.10000
C1907       C  0.52966667  0.64279172  0.89035868     0.10400
C1908       C  0.52913765  0.66716136  0.87722295    -0.16800
C1909       C  0.50613958  0.68252264  0.87675688    -0.27300
C1910       C  0.48380204  0.67433858  0.89144926     0.18800
C1911       C  0.50526805  0.60628794  0.91365246     0.12700
C1912       C  0.55424675  0.62611419  0.88904532    -0.11600
H1913       H  0.54615505  0.67349773  0.86579465     0.13000
C1914       C  0.45908955  0.69080907  0.89198407    -0.22500
H1915       H  0.46688066  0.64295108  0.91502523     0.08700
C1916       C  0.51293428  0.59951534  0.93967500     0.05000
C1917       C  0.51450708  0.57275357  0.94685985    -0.19700
C1918       C  0.50860724  0.55260170  0.92854467    -0.12000
C1919       C  0.49905830  0.55967231  0.90300294     0.13700
C1920       C  0.49788972  0.58637016  0.89585471    -0.22400
C1921       C  0.52016174  0.62052337  0.95952513    -0.05500
H1922       H  0.52169590  0.56755881  0.96643854     0.15200
C1923       C  0.48965486  0.53981280  0.88277673    -0.15700
H1924       H  0.49157531  0.59171606  0.87598988     0.09600
H1925       H  0.46358136  0.71047203  0.90058155     0.07400
H1926       H  0.44335529  0.68153046  0.90420867     0.08600
H1927       H  0.45142577  0.69335156  0.87148832     0.07700
H1928       H  0.54987576  0.60718897  0.87886046     0.02500
H1929       H  0.56143671  0.62198261  0.90943864     0.03000
H1930       H  0.57034877  0.63612012  0.87794264     0.06500
H1931       H  0.52592290  0.61192525  0.97895349     0.05500
H1932       H  0.50298875  0.63373055  0.96283326    -0.00300
H1933       H  0.53701475  0.63233312  0.95195154     0.01200
H1934       H  0.46962818  0.54539587  0.87581327     0.04900
H1935       H  0.48795146  0.51959868  0.89084266     0.06800
H1936       H  0.50329645  0.53966731  0.86546701     0.07700
C1937       C  0.51704459  0.85612641  0.71303710    -0.21900
C1938       C  0.49500019  0.85623948  0.69622652     0.10000
C1939       C  0.47426355  0.83818418  0.70075411     0.10400
C1940       C  0.47615275  0.82018888  0.72182930    -0.16800
C1941       C  0.49842682  0.81961139  0.73835323    -0.27300
C1942       C  0.51911298  0.83794606  0.73400295     0.18800
C1943       C  0.49459767  0.87408643  0.67285420     0.12700
C1944       C  0.45030194  0.83769278  0.68306740    -0.11600
H1945       H  0.46034579  0.80617736  0.72524400     0.13000
C1946       C  0.54387773  0.83844349  0.75055989    -0.22500
H1947       H  0.53300973  0.86990675  0.70938813     0.08700
C1948       C  0.48383173  0.89965158  0.67419651     0.05000
C1949       C  0.48145012  0.91459883  0.65080340    -0.19700
C1950       C  0.48923009  0.90447425  0.62586644    -0.12000
C1951       C  0.50108470  0.87903268  0.62492011     0.13700
C1952       C  0.50367417  0.86437085  0.64845704    -0.22400
C1953       C  0.47429859  0.91086873  0.70022880    -0.05500
H1954       H  0.47251702  0.93396728  0.65196672     0.15200
C1955       C  0.51107056  0.86685184  0.59943109    -0.15700
H1956       H  0.51208942  0.84473357  0.64775188     0.09600
H1957       H  0.54569999  0.85790741  0.76050989     0.07400
H1958       H  0.56131933  0.83537567  0.73751171     0.08600
H1959       H  0.54425078  0.82297946  0.76606706     0.07700
H1960       H  0.45631554  0.83325287  0.66230842     0.02500
H1961       H  0.44029832  0.85714689  0.68365373     0.03000
H1962       H  0.43586936  0.82246058  0.68943353     0.06500
H1963       H  0.46629675  0.93110657  0.69784744     0.05500
H1964       H  0.49092675  0.91172627  0.71454904    -0.00300
H1965       H  0.45841651  0.89821922  0.70852526     0.01200
H1966       H  0.52130583  0.84782846  0.60301939     0.04900
H1967       H  0.52540430  0.88031851  0.58969890     0.06800
H1968       H  0.49433891  0.86265938  0.58586156     0.07700
C1969       C  0.52433857  0.63802511  0.65281081    -0.21900
C1970       C  0.50946150  0.62777789  0.67385697     0.10000
C1971       C  0.49879082  0.60217820  0.67171156     0.10400
C1972       C  0.50343107  0.58730181  0.64848974    -0.16800
C1973       C  0.51809359  0.59764088  0.62710012    -0.27300
C1974       C  0.52882324  0.62341300  0.62950705     0.18800
C1975       C  0.50579033  0.64448295  0.69789154     0.12700
C1976       C  0.48261195  0.59061224  0.69394498    -0.11600
H1977       H  0.49531343  0.56759578  0.64692123     0.13000
C1978       C  0.54568807  0.63554188  0.60805049    -0.22500
H1979       H  0.53257761  0.65766418  0.65473482     0.08700
C1980       C  0.52561576  0.64641138  0.71748470     0.05000
C1981       C  0.52307294  0.66516328  0.73792226    -0.19700
C1982       C  0.50107154  0.68195945  0.73930187    -0.12000
C1983       C  0.48056548  0.67906152  0.72042323     0.13700
C1984       C  0.48330964  0.66050810  0.69982193    -0.22400
C1985       C  0.54958897  0.62887804  0.71657973    -0.05500
H1986       H  0.53859150  0.66717293  0.75259498     0.15200
C1987       C  0.45564750  0.69526103  0.72137445    -0.15700
H1988       H  0.46803287  0.65888803  0.68483968     0.09600
H1989       H  0.55378854  0.65497751  0.61415341     0.07400
H1990       H  0.53361561  0.63881540  0.59001440     0.08600
H1991       H  0.56261705  0.62241726  0.60336391     0.07700
H1992       H  0.46493235  0.60305389  0.69755350     0.02500
H1993       H  0.49459726  0.58977147  0.71237309     0.03000
H1994       H  0.47582789  0.57032842  0.68918645     0.06500
H1995       H  0.56308276  0.63275240  0.73351845     0.05500
H1996       H  0.56071963  0.63227366  0.69786972    -0.00300
H1997       H  0.54336547  0.60791368  0.71749320     0.01200
H1998       H  0.45407005  0.70721699  0.70298374     0.04900
H1999       H  0.43830065  0.68193241  0.72268086     0.06800
H2000       H  0.45483244  0.70877393  0.73868060     0.07700
C2001       C  0.89435150  0.52001797  0.85674218    -0.21900
C2002       C  0.90386876  0.49551387  0.86514966     0.10000
C2003       C  0.90102329  0.47322092  0.84857389     0.10400
C2004       C  0.88699355  0.47559242  0.82469255    -0.16800
C2005       C  0.87556397  0.49966222  0.81738882    -0.27300
C2006       C  0.88014707  0.52238698  0.83301190     0.18800
C2007       C  0.91222752  0.49275286  0.89312218     0.12700
C2008       C  0.91177533  0.44676443  0.85668651    -0.11600
H2009       H  0.88341200  0.45828939  0.81255413     0.13000
C2010       C  0.86924647  0.54906775  0.82584918    -0.22500
H2011       H  0.89663178  0.53707192  0.86955481     0.08700
C2012       C  0.93810156  0.49809788  0.90162699     0.05000
C2013       C  0.94455795  0.49456790  0.92853860    -0.19700
C2014       C  0.92567075  0.48581988  0.94725637    -0.12000
C2015       C  0.89928776  0.48144460  0.93847349     0.13700
C2016       C  0.89312263  0.48495028  0.91156803    -0.22400
C2017       C  0.95886369  0.50719563  0.88224556    -0.05500
H2018       H  0.96466404  0.49831334  0.93480722     0.15200
C2019       C  0.87726482  0.47289165  0.95679272    -0.15700
H2020       H  0.87316431  0.48134226  0.90466676     0.09600
H2021       H  0.88572391  0.56341576  0.82417069     0.07400
H2022       H  0.85546499  0.55579868  0.84165168     0.08600
H2023       H  0.85849099  0.54904258  0.80668279     0.07700
H2024       H  0.90244963  0.44031577  0.87557129     0.02500
H2025       H  0.93346203  0.44819321  0.85951242     0.03000
H2026       H  0.90785727  0.43144912  0.84139046     0.06500
H2027       H  0.97818579  0.51046609  0.89212486     0.05500
H2028       H  0.95261853  0.52603263  0.87298878    -0.00300
H2029       H  0.96160467  0.49211904  0.86646548     0.01200
H2030       H  0.85810540  0.47111985  0.94621756     0.04900
H2031       H  0.87455329  0.48766894  0.97286498     0.06800
H2032       H  0.88174923  0.45324484  0.96533681     0.07700
C2033       C  0.89371841  0.52532495  0.63835505    -0.21900
C2034       C  0.90469194  0.50146578  0.62971918     0.10000
C2035       C  0.90315965  0.47902187  0.64615844     0.10400
C2036       C  0.88885229  0.48048868  0.67011902    -0.16800
C2037       C  0.87619581  0.50394200  0.67779529    -0.27300
C2038       C  0.87958941  0.52689995  0.66224839     0.18800
C2039       C  0.91538805  0.50025766  0.60232368     0.12700
C2040       C  0.91582963  0.45344693  0.63791292    -0.11600
H2041       H  0.88628157  0.46296665  0.68214557     0.13000
C2042       C  0.86755315  0.55303835  0.66973949    -0.22500
H2043       H  0.89523742  0.54260385  0.62577911     0.08700
C2044       C  0.89849309  0.49579477  0.58053157     0.05000
C2045       C  0.90832177  0.49868826  0.55462823    -0.19700
C2046       C  0.93463559  0.50624974  0.54987657    -0.12000
C2047       C  0.95186574  0.50958563  0.57187695     0.13700
C2048       C  0.94194993  0.50648197  0.59783413    -0.22400
C2049       C  0.86982320  0.48885899  0.58466021    -0.05500
H2050       H  0.89507140  0.49589479  0.53796382     0.15200
C2051       C  0.98023822  0.51790605  0.56841979    -0.15700
H2052       H  0.95467786  0.50998169  0.61477385     0.09600
H2053       H  0.85306516  0.55900157  0.65434461     0.07400
H2054       H  0.88332163  0.56819870  0.67094744     0.08600
H2055       H  0.85733406  0.55257085  0.68923763     0.07700
H2056       H  0.93740178  0.45641171  0.63528804     0.02500
H2057       H  0.90723376  0.44653687  0.61885812     0.03000
H2058       H  0.91280043  0.43781316  0.65304420     0.06500
H2059       H  0.85935524  0.48600994  0.56549025     0.05500
H2060       H  0.85971728  0.50490839  0.59572217    -0.00300
H2061       H  0.86824028  0.47029479  0.59619515     0.01200
H2062       H  0.98119119  0.53698967  0.55768298     0.04900
H2063       H  0.99122565  0.50260740  0.55714387     0.06800
H2064       H  0.99033422  0.52053502  0.58782375     0.07700
C2065       C  0.71732082  0.51890874  0.85858546    -0.21900
C2066       C  0.69774267  0.49954489  0.85612267     0.10000
C2067       C  0.69822963  0.48219600  0.83418122     0.10400
C2068       C  0.71883239  0.48399278  0.81561948    -0.16800
C2069       C  0.73854176  0.50332941  0.81791541    -0.27300
C2070       C  0.73751731  0.52133060  0.83951925     0.18800
C2071       C  0.67602039  0.49819922  0.87586322     0.12700
C2072       C  0.67671233  0.46205140  0.83014637    -0.11600
H2073       H  0.71945026  0.47041633  0.79897008     0.13000
C2074       C  0.75695837  0.54359423  0.84280755    -0.22500
H2075       H  0.71655290  0.53251026  0.87521323     0.08700
C2076       C  0.67657606  0.48015376  0.89713752     0.05000
C2077       C  0.65361583  0.47609193  0.91232525    -0.19700
C2078       C  0.63004053  0.48955738  0.90655673    -0.12000
C2079       C  0.63022500  0.50910703  0.88634719     0.13700
C2080       C  0.65327981  0.51316185  0.87135538    -0.22400
C2081       C  0.70123190  0.46477102  0.90332907    -0.05500
H2082       H  0.65377408  0.46140203  0.92794002     0.15200
C2083       C  0.60634984  0.52582550  0.88027394    -0.15700
H2084       H  0.65322831  0.52723030  0.85515591     0.09600
H2085       H  0.76813775  0.54088091  0.86156890     0.07400
H2086       H  0.74613834  0.56259956  0.84379395     0.08600
H2087       H  0.77125288  0.54502355  0.82618661     0.07700
H2088       H  0.65734660  0.47213980  0.82833353     0.02500
H2089       H  0.67602400  0.44832920  0.84728195     0.03000
H2090       H  0.67994915  0.45023517  0.81182975     0.06500
H2091       H  0.69836021  0.45147755  0.92061420     0.05500
H2092       H  0.71754877  0.47861316  0.90806838    -0.00300
H2093       H  0.70700923  0.45254053  0.88596403     0.01200
H2094       H  0.61102943  0.54163708  0.86576025     0.04900
H2095       H  0.59909025  0.53540753  0.89875266     0.06800
H2096       H  0.59048170  0.51360280  0.87139557     0.07700
C2097       C  0.64888163  0.52263585  0.63988328    -0.21900
C2098       C  0.67297785  0.51690122  0.62770180     0.10000
C2099       C  0.67422332  0.51337941  0.59997412     0.10400
C2100       C  0.65101298  0.51562292  0.58487428    -0.16800
C2101       C  0.62657814  0.52161232  0.59691216    -0.27300
C2102       C  0.62570551  0.52539294  0.62500023     0.18800
C2103       C  0.69669391  0.51528521  0.64463852     0.12700
C2104       C  0.70014856  0.50772052  0.58641131    -0.11600
H2105       H  0.65207472  0.51295517  0.56352710     0.13000
C2106       C  0.60093528  0.53336268  0.63972977    -0.22500
H2107       H  0.64839096  0.52547687  0.66124996     0.08700
C2108       C  0.71046214  0.53818100  0.65249463     0.05000
C2109       C  0.73179875  0.53587639  0.67004839    -0.19700
C2110       C  0.73921666  0.51124446  0.68016184    -0.12000
C2111       C  0.72563799  0.48828196  0.67199431     0.13700
C2112       C  0.70448187  0.49061510  0.65427372    -0.22400
C2113       C  0.70231186  0.56499715  0.64268377    -0.05500
H2114       H  0.74231182  0.55335891  0.67650087     0.15200
C2115       C  0.73274550  0.46115477  0.68184725    -0.15700
H2116       H  0.69368329  0.47313813  0.64827373     0.09600
H2117       H  0.60464820  0.53668881  0.66122797     0.07400
H2118       H  0.58585815  0.51755459  0.63823973     0.08600
H2119       H  0.59313240  0.55209662  0.63148744     0.07700
H2120       H  0.70853470  0.48902679  0.59411890     0.02500
H2121       H  0.71424895  0.52402173  0.59036605     0.03000
H2122       H  0.69781132  0.50578800  0.56455410     0.06500
H2123       H  0.71534441  0.58077428  0.65057158     0.05500
H2124       H  0.68178993  0.56930823  0.64915019    -0.00300
H2125       H  0.70331636  0.56551944  0.62064830     0.01200
H2126       H  0.71562126  0.45252797  0.69255620     0.04900
H2127       H  0.74985889  0.46114060  0.69554041     0.06800
H2128       H  0.73776038  0.44833689  0.66465820     0.07700
loop_ 
_geom_bond_atom_site_label_1 
_geom_bond_atom_site_label_2 
_geom_bond_distance 
_geom_bond_site_symmetry_2 
_ccdc_geom_bond_type 
N1            C6   1.351       .  A
N1            C5   1.354       .  A
N1           H33   1.037       .  S
N2            C9   1.354       .  A
N2           C10   1.350       .  A
N3            C8   1.354       .  A
N3            C7   1.352       .  A
N3           H34   1.039       .  S
N4           C11   1.352       .  A
N4           C12   1.352       .  A
C5           C13   1.387       .  A
C5           C21   1.417       .  A
C6           C22   1.415       .  A
C6           C14   1.388       .  A
C7           C15   1.387       .  A
C7           C24   1.415       .  A
C8           C23   1.415       .  A
C8           C16   1.386       .  A
C9           C21   1.415       .  A
C9           C17   1.385       .  A
C10          C24   1.416       .  A
C10          C18   1.388       .  A
C11          C19   1.386       .  A
C11          C22   1.413       .  A
C12          C20   1.388       .  A
C12          C23   1.416       .  A
C13          C14   1.374       .  A
C13          H25   1.082       .  S
C14          H26   1.082       .  S
C15          C16   1.378       .  A
C15          H27   1.082       .  S
C16          H28   1.082       .  S
C17          C18   1.371       .  A
C17          H29   1.082       .  S
C18          H30   1.082       .  S
C19          C20   1.370       .  A
C19          H31   1.082       .  S
C20          H32   1.083       .  S
C21        C2069   1.496       .  S
C22        C2110   1.482       .  S
C23        C2037   1.489       .  S
C24        C2005   1.483       .  S
N35          C40   1.354       .  A
N35          C39   1.354       .  A
N35          H67   1.039       .  S
N36          C43   1.353       .  A
N36          C44   1.351       .  A
N37          C42   1.353       .  A
N37          C41   1.353       .  A
N37          H68   1.038       .  S
N38          C45   1.354       .  A
N38          C46   1.352       .  A
C39          C47   1.387       .  A
C39          C55   1.417       .  A
C40          C56   1.418       .  A
C40          C48   1.387       .  A
C41          C49   1.387       .  A
C41          C58   1.417       .  A
C42          C57   1.416       .  A
C42          C50   1.387       .  A
C43          C55   1.413       .  A
C43          C51   1.385       .  A
C44          C58   1.417       .  A
C44          C52   1.388       .  A
C45          C53   1.385       .  A
C45          C56   1.414       .  A
C46          C54   1.388       .  A
C46          C57   1.417       .  A
C47          C48   1.377       .  A
C47          H59   1.082       .  S
C48          H60   1.082       .  S
C49          C50   1.381       .  A
C49          H61   1.082       .  S
C50          H62   1.082       .  S
C51          C52   1.372       .  A
C51          H63   1.082       .  S
C52          H64   1.082       .  S
C53          C54   1.371       .  A
C53          H65   1.082       .  S
C54          H66   1.082       .  S
C55        C1941   1.493       .  S
C56        C1982   1.495       .  S
C57        C1909   1.490       .  S
C58        C1877   1.491       .  S
N69          C74   1.353       .  A
N69          C73   1.353       .  A
N69         H101   1.037       .  S
N70          C77   1.352       .  A
N70          C78   1.351       .  A
N71          C76   1.354       .  A
N71          C75   1.354       .  A
N71         H102   1.035       .  S
N72          C79   1.352       .  A
N72          C80   1.351       .  A
C73          C81   1.386       .  A
C73          C89   1.413       .  A
C74          C90   1.415       .  A
C74          C82   1.388       .  A
C75          C83   1.387       .  A
C75          C92   1.416       .  A
C76          C91   1.416       .  A
C76          C84   1.387       .  A
C77          C89   1.412       .  A
C77          C85   1.385       .  A
C78          C92   1.416       .  A
C78          C86   1.388       .  A
C79          C87   1.385       .  A
C79          C90   1.411       .  A
C80          C88   1.388       .  A
C80          C91   1.415       .  A
C81          C82   1.374       .  A
C81          H93   1.082       .  S
C82          H94   1.082       .  S
C83          C84   1.378       .  A
C83          H95   1.082       .  S
C84          H96   1.082       .  S
C85          C86   1.370       .  A
C85          H97   1.082       .  S
C86          H98   1.082       .  S
C87          C88   1.371       .  A
C87          H99   1.082       .  S
C88         H100   1.082       .  S
C89        C1813   1.487       .  S
C90        C1845   1.487       .  S
C91        C1749   1.486       .  S
C92        C1781   1.487       .  S
O103        C119   1.277       .  A
O103       Zn109   2.043       .  S
C104       C1685   1.504       .  S
C104        O120   1.278       .  A
C104        O117   1.279       .  A
O105        C118   1.275       .  A
O105       Cd112   2.082       .  S
O106        C124   1.279       .  A
O106       Cd115   2.103       .  S
O107        C121   1.274       .  A
O107       Cd111   2.059       .  S
O108        C119   1.271       .  A
O108       Cd111   2.050       .  S
Zn109       O120   2.028   1_556  S
Zn109       O122   2.026       .  S
Zn109       O114   1.945       .  S
O110        C121   1.280       .  A
O110       Cd115   2.104       .  S
Cd111       O113   2.070       .  S
Cd111       O114   1.993       .  S
Cd112       O116   2.067       .  S
Cd112       O125   2.078       .  S
Cd112       O114   1.996       .  S
O113        C123   1.273       .  A
O114       Cd115   2.009       .  S
Cd115       O117   2.103   1_556  S
O116        C123   1.275       .  A
C118       C1630   1.501       .  S
C118        O122   1.276       .  A
C119       C2078   1.488       .  S
C121       C1918   1.488       .  S
C123       C1653   1.491       .  S
C124       C1717   1.506       .  S
C124        O125   1.279       .  A
O126        C142   1.275       .  A
O126       Zn132   2.036       .  S
C127       C1534   1.503       .  S
C127        O143   1.278       .  A
C127        O140   1.278       .  A
O128        C141   1.276       .  A
O128       Cd135   2.084       .  S
O129        C147   1.279       .  A
O129       Cd138   2.096       .  S
O130        C144   1.276       .  A
O130       Cd134   2.070       .  S
O131        C142   1.274       .  A
O131       Cd134   2.057       .  S
Zn132       O143   2.021       .  S
Zn132       O145   2.032       .  S
Zn132       O137   1.927       .  S
O133        C144   1.280       .  A
O133       Cd138   2.095       .  S
Cd134       O136   2.083       .  S
Cd134       O137   1.989       .  S
Cd135       O139   2.050       .  S
Cd135       O148   2.066       .  S
Cd135       O137   1.982       .  S
O136        C146   1.276       .  A
O137       Cd138   1.999       .  S
Cd138       O140   2.094       .  S
O139        C146   1.270       .  A
C141       C1973   1.493       .  S
C141        O145   1.275       .  A
C142       C1822   1.492       .  S
C144       C1557   1.496       .  S
C146       C2101   1.492       .  S
C147       C1598   1.497       .  S
C147        O148   1.277       .  A
O149        C165   1.277       .  A
O149       Zn155   2.047       .  S
C150       C1790   1.500       .  S
C150        O166   1.274       .  A
C150        O163   1.279       .  A
O151        C164   1.278       .  A
O151       Cd158   2.086       .  S
O152        C170   1.280       .  A
O152       Cd161   2.099   1_545  S
O153        C167   1.277       .  A
O153       Cd157   2.065       .  S
O154        C165   1.272       .  A
O154       Cd157   2.061       .  S
Zn155       O166   2.016       .  S
Zn155       O168   2.020       .  S
Zn155       O160   1.941       .  S
O156        C167   1.278       .  A
O156       Cd161   2.098       .  S
Cd157       O159   2.086       .  S
Cd157       O160   1.987       .  S
Cd158       O162   2.073       .  S
Cd158       O171   2.077   1_565  S
Cd158       O160   1.996       .  S
O159        C169   1.276       .  A
O160       Cd161   2.011       .  S
Cd161       O163   2.090       .  S
O162        C169   1.276       .  A
C164       C1950   1.498       .  S
C164        O168   1.273       .  A
C165       C1429   1.497       .  S
C167       C1406   1.502       .  S
C169       C1461   1.502       .  S
C170       C1493   1.490       .  S
C170        O171   1.278       .  A
N172        C177   1.352       .  A
N172        C176   1.351       .  A
N172        H204   1.039       .  S
N173        C180   1.350       .  A
N173        C181   1.349       .  A
N174        C179   1.354       .  A
N174        C178   1.356       .  A
N174        H205   1.038       .  S
N175        C182   1.353       .  A
N175        C183   1.351       .  A
C176        C184   1.387       .  A
C176        C192   1.413       .  A
C177        C193   1.413       .  A
C177        C185   1.387       .  A
C178        C186   1.386       .  A
C178        C195   1.419       .  A
C179        C194   1.419       .  A
C179        C187   1.387       .  A
C180        C192   1.409       .  A
C180        C188   1.385       .  A
C181        C195   1.413       .  A
C181        C189   1.388       .  A
C182        C190   1.384       .  A
C182        C193   1.411       .  A
C183        C191   1.389       .  A
C183        C194   1.417       .  A
C184        C185   1.377       .  A
C184        H196   1.083       .  S
C185        H197   1.082       .  S
C186        C187   1.382       .  A
C186        H198   1.082       .  S
C187        H199   1.082       .  S
C188        C189   1.370       .  A
C188        H200   1.082       .  S
C189        H201   1.082       .  S
C190        C191   1.370       .  A
C190        H202   1.082       .  S
C191        H203   1.082       .  S
C192       C1662   1.482       .  S
C193       C1374   1.485       .  S
C194       C1502   1.491       .  S
C195       C1589   1.490       .  S
O206        C222   1.277       .  A
O206       Zn212   2.037       .  S
C207       C1333   1.502       .  S
C207        O223   1.273       .  A
C207        O220   1.280       .  A
O208        C221   1.273       .  A
O208       Cd215   2.070       .  S
O209        C227   1.279       .  A
O209       Cd218   2.100   1_565  S
O210        C224   1.275       .  A
O210       Cd214   2.062   1_554  S
O211        C222   1.273       .  A
O211       Cd214   2.071       .  S
Zn212       O223   2.009       .  S
Zn212       O225   2.011       .  S
Zn212       O217   1.932       .  S
O213        C224   1.279       .  A
O213       Cd218   2.089   1_554  S
Cd214       O216   2.083       .  S
Cd214       O217   1.988       .  S
Cd215       O219   2.061       .  S
Cd215       O228   2.059   1_545  S
Cd215       O217   1.988       .  S
O216        C226   1.275       .  A
O217       Cd218   2.008       .  S
Cd218       O220   2.100       .  S
O219        C226   1.274       .  A
C221       C1365   1.494       .  S
C221        O225   1.274       .  A
C222       C1310   1.497       .  S
C224       C1237   1.484       .  S
C226       C1278   1.490       .  S
C227       C1886   1.492       .  S
C227        O228   1.274       .  A
N229        C234   1.351       .  A
N229        C233   1.352       .  A
N229        H261   1.038       .  S
N230        C237   1.354       .  A
N230        C238   1.351       .  A
N231        C236   1.355   1_556  A
N231        C235   1.353       .  A
N231        H262   1.038       .  S
N232        C239   1.350       .  A
N232        C240   1.351       .  A
C233        C241   1.387       .  A
C233        C249   1.413       .  A
C234        C250   1.412       .  A
C234        C242   1.388       .  A
C235        C243   1.387   1_556  A
C235        C252   1.418       .  A
C236        C251   1.417   1_554  A
C236        C244   1.386       .  A
C237        C249   1.412       .  A
C237        C245   1.384       .  A
C238        C252   1.418       .  A
C238        C246   1.389       .  A
C239        C247   1.385       .  A
C239        C250   1.409       .  A
C240        C248   1.388       .  A
C240        C251   1.414       .  A
C241        C242   1.373       .  A
C241        H253   1.083       .  S
C242        H254   1.082   1_556  S
C243        C244   1.379       .  A
C243        H255   1.082       .  S
C244        H256   1.082       .  S
C245        C246   1.372       .  A
C245        H257   1.082       .  S
C246        H258   1.082       .  S
C247        C248   1.370       .  A
C247        H259   1.082       .  S
C248        H260   1.083       .  S
C249       C1621   1.490       .  S
C250       C1214   1.479       .  S
C251       C1173   1.490   1_556  S
C252       C1342   1.488       .  S
N263        C268   1.355   1_565  A
N263        C267   1.353   1_565  A
N263        H295   1.039       .  S
N264        C271   1.352       .  A
N264        C272   1.351       .  A
N265        C270   1.354   1_565  A
N265        C269   1.356   1_565  A
N265        H296   1.039       .  S
N266        C273   1.355       .  A
N266        C274   1.353       .  A
C267        C275   1.388       .  A
C267        C283   1.417   1_545  A
C268        C284   1.417   1_545  A
C268        C276   1.386       .  A
C269        C277   1.386       .  A
C269        C286   1.419       .  A
C270        C285   1.419   1_545  A
C270        C278   1.387       .  A
C271        C283   1.413       .  A
C271        C279   1.386       .  A
C272        C286   1.416   1_565  A
C272        C280   1.388       .  A
C273        C281   1.384       .  A
C273        C284   1.416       .  A
C274        C282   1.389       .  A
C274        C285   1.420       .  A
C275        C276   1.376       .  A
C275        H287   1.083       .  S
C276        H288   1.082       .  S
C277        C278   1.380       .  A
C277        H289   1.082       .  S
C278        H290   1.082       .  S
C279        C280   1.371       .  A
C279        H291   1.082       .  S
C280        H292   1.083       .  S
C281        C282   1.372       .  A
C281        H293   1.082       .  S
C282        H294   1.082       .  S
C283       C1269   1.487   1_565  S
C284       C1470   1.497       .  S
C285       C1141   1.492       .  S
C286       C1109   1.494       .  S
N297        C302   1.353   1_455  A
N297        C301   1.353   1_455  A
N297        H329   1.038       .  S
N298        C305   1.352   1_655  A
N298        C306   1.351   1_655  A
N299        C304   1.353       .  A
N299        C303   1.355       .  A
N299        H330   1.039   1_655  S
N300        C307   1.353       .  A
N300        C308   1.352       .  A
C301        C309   1.386       .  A
C301        C317   1.414   1_655  A
C302        C318   1.416       .  A
C302        C310   1.388       .  A
C303        C311   1.386       .  A
C303        C320   1.418       .  A
C304        C319   1.417       .  A
C304        C312   1.387       .  A
C305        C317   1.411       .  A
C305        C313   1.385       .  A
C306        C320   1.415   1_455  A
C306        C314   1.388       .  A
C307        C315   1.385   1_655  A
C307        C318   1.414       .  A
C308        C316   1.389   1_655  A
C308        C319   1.418       .  A
C309        C310   1.376       .  A
C309        H321   1.082       .  S
C310        H322   1.083       .  S
C311        C312   1.381       .  A
C311        H323   1.082       .  S
C312        H324   1.082       .  S
C313        C314   1.370       .  A
C313        H325   1.082       .  S
C314        H326   1.082       .  S
C315        C316   1.372       .  A
C315        H327   1.082       .  S
C316        H328   1.082       .  S
C317       C1086   1.486       .  S
C318       C1054   1.490       .  S
C319       C1013   1.488       .  S
C320        C981   1.492       .  S
N331        C336   1.354       .  A
N331        C335   1.355       .  A
N331        H363   1.038       .  S
N332        C339   1.351       .  A
N332        C340   1.350       .  A
N333        C338   1.353       .  A
N333        C337   1.353       .  A
N333        H364   1.037       .  S
N334        C341   1.353       .  A
N334        C342   1.352       .  A
C335        C343   1.387       .  A
C335        C351   1.417       .  A
C336        C352   1.418       .  A
C336        C344   1.387       .  A
C337        C345   1.387       .  A
C337        C354   1.414       .  A
C338        C353   1.414       .  A
C338        C346   1.387       .  A
C339        C351   1.410       .  A
C339        C347   1.385       .  A
C340        C354   1.414       .  A
C340        C348   1.388       .  A
C341        C349   1.386       .  A
C341        C352   1.415       .  A
C342        C350   1.387       .  A
C342        C353   1.415       .  A
C343        C344   1.377       .  A
C343        H355   1.083       .  S
C344        H356   1.082       .  S
C345        C346   1.379       .  A
C345        H357   1.082       .  S
C346        H358   1.082       .  S
C347        C348   1.370       .  A
C347        H359   1.082       .  S
C348        H360   1.083       .  S
C349        C350   1.372       .  A
C349        H361   1.082       .  S
C350        H362   1.083       .  S
C351        C949   1.487       .  S
C352       C1438   1.494       .  S
C353       C1525   1.488       .  S
C354        C917   1.484       .  S
N365        C370   1.352       .  A
N365        C369   1.353       .  A
N365        H397   1.039       .  S
N366        C373   1.353       .  A
N366        C374   1.350       .  A
N367        C372   1.356       .  A
N367        C371   1.354       .  A
N367        H398   1.036       .  S
N368        C375   1.352       .  A
N368        C376   1.352       .  A
C369        C377   1.387       .  A
C369        C385   1.412       .  A
C370        C386   1.413       .  A
C370        C378   1.387       .  A
C371        C379   1.387       .  A
C371        C388   1.419       .  A
C372        C387   1.421       .  A
C372        C380   1.386       .  A
C373        C385   1.411       .  A
C373        C381   1.384       .  A
C374        C388   1.418       .  A
C374        C382   1.390       .  A
C375        C383   1.386       .  A
C375        C386   1.414       .  A
C376        C384   1.387       .  A
C376        C387   1.417       .  A
C377        C378   1.375       .  A
C377        H389   1.083       .  S
C378        H390   1.082       .  S
C379        C380   1.380       .  A
C379        H391   1.082       .  S
C380        H392   1.082       .  S
C381        C382   1.372       .  A
C381        H393   1.082       .  S
C382        H394   1.082       .  S
C383        C384   1.373       .  A
C383        H395   1.082       .  S
C384        H396   1.083       .  S
C385        C853   1.488       .  S
C386        C885   1.489       .  S
C387       C1694   1.498       .  S
C388       C1566   1.488       .  S
O399        C415   1.273       .  A
O399       Zn405   2.020       .  S
C400       C2046   1.489       .  S
C400        O416   1.275       .  A
C400        O413   1.276       .  A
O401        C414   1.276       .  A
O401       Cd408   2.080       .  S
O402        C420   1.276       .  A
O402       Cd411   2.074   1_455  S
O403        C417   1.274       .  A
O403       Cd407   2.061       .  S
O404        C415   1.274       .  A
O404       Cd407   2.054       .  S
Zn405       O416   2.013       .  S
Zn405       O418   1.995       .  S
Zn405       O410   1.936       .  S
O406        C417   1.278       .  A
O406       Cd411   2.085       .  S
Cd407       O409   2.076       .  S
Cd407       O410   1.982       .  S
Cd408       O412   2.073       .  S
Cd408       O421   2.072   1_655  S
Cd408       O410   1.995       .  S
O409        C419   1.274       .  A
O410       Cd411   1.993       .  S
Cd411       O413   2.081       .  S
O412        C419   1.276       .  A
C414       C1854   1.484       .  S
C414        O418   1.270       .  A
C415        C862   1.486       .  S
C417        C830   1.487       .  S
C419       C1045   1.494       .  S
C420        C926   1.489       .  S
C420        O421   1.278       .  A
O422        C438   1.275       .  A
O422       Zn428   2.032       .  S
C423       C1758   1.489       .  S
C423        O439   1.275       .  A
C423        O436   1.279       .  A
O424        C437   1.275       .  A
O424       Cd431   2.087       .  S
O425        C443   1.278       .  A
O425       Cd434   2.091   1_545  S
O426        C440   1.276       .  A
O426       Cd430   2.063       .  S
O427        C438   1.274       .  A
O427       Cd430   2.050       .  S
Zn428       O439   2.014   1_455  S
Zn428       O441   2.015       .  S
Zn428       O433   1.933       .  S
O429        C440   1.280       .  A
O429       Cd434   2.111       .  S
Cd430       O432   2.078       .  S
Cd430       O433   1.987       .  S
Cd431       O435   2.060       .  S
Cd431       O444   2.061   1_565  S
Cd431       O433   1.994       .  S
O432        C442   1.275       .  A
O433       Cd434   2.006       .  S
Cd434       O436   2.094   1_455  S
O435        C442   1.272       .  A
C437       C1077   1.501       .  S
C437        O441   1.274       .  A
C438        C958   1.491       .  S
C440       C1150   1.500       .  S
C442        C798   1.488       .  S
C443        C766   1.494       .  S
C443        O444   1.277       .  A
O445        C461   1.277       .  A
O445       Zn451   2.040       .  S
C446       C2014   1.497       .  S
C446        O462   1.274       .  A
C446        O459   1.277       .  A
O447        C460   1.274       .  A
O447       Cd454   2.071       .  S
O448        C466   1.276       .  A
O448       Cd457   2.081   1_455  S
O449        C463   1.279       .  A
O449       Cd453   2.077       .  S
O450        C461   1.272       .  A
O450       Cd453   2.057       .  S
Zn451       O462   2.017   1_554  S
Zn451       O464   2.010       .  S
Zn451       O456   1.936       .  S
O452        C463   1.275       .  A
O452       Cd457   2.071       .  S
Cd453       O455   2.087       .  S
Cd453       O456   1.987       .  S
Cd454       O458   2.061       .  S
Cd454       O467   2.075   1_655  S
Cd454       O456   1.987       .  S
O455        C465   1.278       .  A
O456       Cd457   1.990       .  S
Cd457       O459   2.075   1_554  S
O458        C465   1.273       .  A
C460       C1205   1.490       .  S
C460        O464   1.275       .  A
C461        C894   1.491       .  S
C463       C1022   1.491       .  S
C465        C725   1.491       .  S
C466        C693   1.488       .  S
C466        O467   1.277       .  A
N468        C473   1.353   1_565  A
N468        C472   1.352   1_565  A
N468        H500   1.038       .  S
N469        C476   1.350       .  A
N469        C477   1.351       .  A
N470        C475   1.353   1_565  A
N470        C474   1.354   1_565  A
N470        H501   1.037       .  S
N471        C478   1.352       .  A
N471        C479   1.351       .  A
C472        C480   1.388       .  A
C472        C488   1.414       .  A
C473        C489   1.415   1_545  A
C473        C481   1.387       .  A
C474        C482   1.386       .  A
C474        C491   1.416   1_545  A
C475        C490   1.415   1_545  A
C475        C483   1.386       .  A
C476        C488   1.410   1_565  A
C476        C484   1.386       .  A
C477        C491   1.414       .  A
C477        C485   1.388       .  A
C478        C486   1.385       .  A
C478        C489   1.413       .  A
C479        C487   1.388       .  A
C479        C490   1.416       .  A
C480        C481   1.375       .  A
C480        H492   1.082       .  S
C481        H493   1.082       .  S
C482        C483   1.377       .  A
C482        H494   1.082       .  S
C483        H495   1.082       .  S
C484        C485   1.371       .  A
C484        H496   1.082       .  S
C485        H497   1.082       .  S
C486        C487   1.372       .  A
C486        H498   1.082       .  S
C487        H499   1.082       .  S
C488        C661   1.481       .  S
C489        C789   1.491       .  S
C490       C1397   1.487       .  S
C491       C1246   1.488   1_565  S
O502        C518   1.278       .  A
O502       Zn508   2.050       .  S
C503       C1182   1.493       .  S
C503        O519   1.278       .  A
C503        O516   1.278       .  A
O504        C517   1.273       .  A
O504       Cd511   2.067       .  S
O505        C523   1.279       .  A
O505       Cd514   2.100   1_565  S
O506        C520   1.276       .  A
O506       Cd510   2.063   1_556  S
O507        C518   1.271       .  A
O507       Cd510   2.051       .  S
Zn508       O519   2.025   1_455  S
Zn508       O521   2.005       .  S
Zn508       O513   1.938       .  S
O509        C520   1.280       .  A
O509       Cd514   2.096   1_556  S
Cd510       O512   2.070       .  S
Cd510       O513   1.983       .  S
Cd511       O515   2.051       .  S
Cd511       O524   2.068   1_545  S
Cd511       O513   1.986       .  S
O512        C522   1.274       .  A
O513       Cd514   1.989       .  S
Cd514       O516   2.086   1_455  S
O515        C522   1.273       .  A
C517        C638   1.489       .  S
C517        O521   1.274       .  A
C518        C597   1.492       .  S
C520       C1118   1.491       .  S
C522        C670   1.488       .  S
C523        C990   1.499       .  S
C523        O524   1.276       .  A
N525        C530   1.351   1_655  A
N525        C529   1.351   1_655  A
N525        H557   1.040       .  S
N526        C533   1.354       .  A
N526        C534   1.351       .  A
N527        C532   1.355       .  A
N527        C531   1.353       .  A
N527        H558   1.040       .  S
N528        C535   1.351       .  A
N528        C536   1.350       .  A
C529        C537   1.386       .  A
C529        C545   1.412   1_455  A
C530        C546   1.413   1_455  A
C530        C538   1.388       .  A
C531        C539   1.387   1_655  A
C531        C548   1.419       .  A
C532        C547   1.417       .  A
C532        C540   1.386   1_655  A
C533        C545   1.412       .  A
C533        C541   1.383       .  A
C534        C548   1.418       .  A
C534        C542   1.390       .  A
C535        C543   1.385       .  A
C535        C546   1.411       .  A
C536        C544   1.388       .  A
C536        C547   1.414       .  A
C537        C538   1.375       .  A
C537        H549   1.082       .  S
C538        H550   1.082       .  S
C539        C540   1.378       .  A
C539        H551   1.082       .  S
C540        H552   1.082       .  S
C541        C542   1.369       .  A
C541        H553   1.082       .  S
C542        H554   1.081       .  S
C543        C544   1.371       .  A
C543        H555   1.082       .  S
C544        H556   1.082       .  S
C545        C734   1.489       .  S
C546        C629   1.483   1_655  S
C547        C757   1.488       .  S
C548        C821   1.488       .  S
N559        C564   1.354       .  A
N559        C563   1.354       .  A
N559        H591   1.037       .  S
N560        C567   1.354       .  A
N560        C568   1.352       .  A
N561        C566   1.354       .  A
N561        C565   1.354       .  A
N561        H592   1.036       .  S
N562        C569   1.352       .  A
N562        C570   1.351       .  A
C563        C571   1.387   1_556  A
C563        C579   1.418       .  A
C564        C580   1.417       .  A
C564        C572   1.387   1_556  A
C565        C573   1.387   1_556  A
C565        C582   1.417       .  A
C566        C581   1.416       .  A
C566        C574   1.387   1_556  A
C567        C579   1.415       .  A
C567        C575   1.385       .  A
C568        C582   1.417       .  A
C568        C576   1.388       .  A
C569        C577   1.386       .  A
C569        C580   1.411       .  A
C570        C578   1.388       .  A
C570        C581   1.415       .  A
C571        C572   1.378       .  A
C571        H583   1.082       .  S
C572        H584   1.082       .  S
C573        C574   1.380       .  A
C573        H585   1.082       .  S
C574        H586   1.082       .  S
C575        C576   1.373       .  A
C575        H587   1.082       .  S
C576        H588   1.082       .  S
C577        C578   1.370       .  A
C577        H589   1.082       .  S
C578        H590   1.083       .  S
C579       C1301   1.495       .  S
C580        C606   1.488       .  S
C581        C702   1.488       .  S
C582       C1726   1.490       .  S
C593        C594   1.396       .  A
C593        C598   1.400       .  A
C593        H603   1.085       .  S
C594        C595   1.410       .  A
C594        C599   1.481       .  S
C595        C596   1.409       .  A
C595        C600   1.505   1_554  S
C596        C597   1.409       .  A
C596        H601   1.084       .  S
C597        C598   1.424       .  A
C598        C602   1.510       .  S
C599        C604   1.412       .  A
C599        C608   1.402   1_554  A
C600        H616   1.110       .  S
C600        H617   1.110   1_556  S
C600        H618   1.111       .  S
C602        H613   1.110       .  S
C602        H614   1.111       .  S
C602        H615   1.109       .  S
C604        C605   1.404       .  A
C604        C609   1.507       .  S
C605        C606   1.403   1_554  A
C605        H610   1.084       .  S
C606        C607   1.414       .  A
C607        C608   1.404       .  A
C607        C611   1.507       .  S
C608        H612   1.084       .  S
C609        H619   1.111       .  S
C609        H620   1.110       .  S
C609        H621   1.110       .  S
C611        H622   1.110       .  S
C611        H623   1.108       .  S
C611        H624   1.110       .  S
C625        C626   1.400       .  A
C625        C630   1.400       .  A
C625        H635   1.085       .  S
C626        C627   1.410   1_455  A
C626        C631   1.475       .  S
C627        C628   1.402       .  A
C627        C632   1.507       .  S
C628        C629   1.403   1_655  A
C628        H633   1.084       .  S
C629        C630   1.415       .  A
C630        C634   1.507       .  S
C631        C636   1.407       .  A
C631        C640   1.399       .  A
C632        H648   1.110       .  S
C632        H649   1.109       .  S
C632        H650   1.111       .  S
C634        H645   1.110       .  S
C634        H646   1.111       .  S
C634        H647   1.107       .  S
C636        C637   1.399       .  A
C636        C641   1.509       .  S
C637        C638   1.409       .  A
C637        H642   1.084       .  S
C638        C639   1.421       .  A
C639        C640   1.405       .  A
C639        C643   1.507       .  S
C640        H644   1.084       .  S
C641        H651   1.111       .  S
C641        H652   1.110       .  S
C641        H653   1.109       .  S
C643        H654   1.111   1_455  S
C643        H655   1.110       .  S
C643        H656   1.110   1_455  S
C657        C658   1.400       .  A
C657        C662   1.399       .  A
C657        H667   1.085       .  S
C658        C659   1.409   1_545  A
C658        C663   1.473       .  S
C659        C660   1.402       .  A
C659        C664   1.506       .  S
C660        C661   1.403   1_565  A
C660        H665   1.084       .  S
C661        C662   1.413       .  A
C662        C666   1.507       .  S
C663        C668   1.406       .  A
C663        C672   1.399       .  A
C664        H680   1.110       .  S
C664        H681   1.110       .  S
C664        H682   1.111       .  S
C666        H677   1.110       .  S
C666        H678   1.110       .  S
C666        H679   1.108       .  S
C668        C669   1.397       .  A
C668        C673   1.509       .  S
C669        C670   1.410       .  A
C669        H674   1.084       .  S
C670        C671   1.421       .  A
C671        C672   1.406       .  A
C671        C675   1.507       .  S
C672        H676   1.084   1_545  S
C673        H683   1.111       .  S
C673        H684   1.110       .  S
C673        H685   1.110   1_545  S
C675        H686   1.110       .  S
C675        H687   1.110   1_545  S
C675        H688   1.111   1_545  S
C689        C690   1.400       .  A
C689        C694   1.408       .  A
C689        H699   1.084       .  S
C690        C691   1.411   1_554  A
C690        C695   1.483   1_554  S
C691        C692   1.403       .  A
C691        C696   1.508       .  S
C692        C693   1.406   1_556  A
C692        H697   1.084       .  S
C693        C694   1.421       .  A
C694        C698   1.507       .  S
C695        C700   1.411       .  A
C695        C704   1.401   1_556  A
C696        H712   1.110   1_556  S
C696        H713   1.110       .  S
C696        H714   1.111       .  S
C698        H709   1.111       .  S
C698        H710   1.110       .  S
C698        H711   1.110       .  S
C700        C701   1.406       .  A
C700        C705   1.505       .  S
C701        C702   1.404       .  A
C701        H706   1.084       .  S
C702        C703   1.415   1_556  A
C703        C704   1.401       .  A
C703        C707   1.507       .  S
C704        H708   1.085       .  S
C705        H715   1.111       .  S
C705        H716   1.110       .  S
C705        H717   1.110       .  S
C707        H718   1.110       .  S
C707        H719   1.108       .  S
C707        H720   1.110       .  S
C721        C722   1.398   1_455  A
C721        C726   1.403   1_455  A
C721        H731   1.084       .  S
C722        C723   1.409       .  A
C722        C727   1.481       .  S
C723        C724   1.406       .  A
C723        C728   1.506       .  S
C724        C725   1.409       .  A
C724        H729   1.084       .  S
C725        C726   1.422       .  A
C726        C730   1.509   1_655  S
C727        C732   1.412       .  A
C727        C736   1.402   1_655  A
C728        H744   1.110       .  S
C728        H745   1.109       .  S
C728        H746   1.111       .  S
C730        H741   1.109   1_455  S
C730        H742   1.111       .  S
C730        H743   1.110       .  S
C732        C733   1.402       .  A
C732        C737   1.507       .  S
C733        C734   1.402       .  A
C733        H738   1.084       .  S
C734        C735   1.416   1_655  A
C735        C736   1.405       .  A
C735        C739   1.507       .  S
C736        H740   1.084       .  S
C737        H747   1.111       .  S
C737        H748   1.110       .  S
C737        H749   1.109       .  S
C739        H750   1.108       .  S
C739        H751   1.111       .  S
C739        H752   1.110       .  S
C753        C754   1.401       .  A
C753        C758   1.402       .  A
C753        H763   1.085       .  S
C754        C755   1.411   1_455  A
C754        C759   1.482       .  S
C755        C756   1.405       .  A
C755        C760   1.506       .  S
C756        C757   1.403       .  A
C756        H761   1.084       .  S
C757        C758   1.415   1_655  A
C758        C762   1.507       .  S
C759        C764   1.409       .  A
C759        C768   1.400       .  A
C760        H776   1.110       .  S
C760        H777   1.110       .  S
C760        H778   1.111       .  S
C762        H773   1.110       .  S
C762        H774   1.110       .  S
C762        H775   1.108       .  S
C764        C765   1.401       .  A
C764        C769   1.508       .  S
C765        C766   1.409       .  A
C765        H770   1.084       .  S
C766        C767   1.423       .  A
C767        C768   1.409       .  A
C767        C771   1.507       .  S
C768        H772   1.084       .  S
C769        H779   1.111       .  S
C769        H780   1.110       .  S
C769        H781   1.110   1_455  S
C771        H782   1.110       .  S
C771        H783   1.110   1_455  S
C771        H784   1.111       .  S
C785        C786   1.401   1_545  A
C785        C790   1.405       .  A
C785        H795   1.084       .  S
C786        C787   1.411       .  A
C786        C791   1.480       .  S
C787        C788   1.401       .  A
C787        C792   1.508       .  S
C788        C789   1.403       .  A
C788        H793   1.084       .  S
C789        C790   1.418   1_565  A
C790        C794   1.507       .  S
C791        C796   1.409       .  A
C791        C800   1.398   1_565  A
C792        H808   1.110       .  S
C792        H809   1.110       .  S
C792        H810   1.111       .  S
C794        H805   1.110       .  S
C794        H806   1.110       .  S
C794        H807   1.107       .  S
C796        C797   1.405       .  A
C796        C801   1.506       .  S
C797        C798   1.408       .  A
C797        H802   1.084       .  S
C798        C799   1.421   1_565  A
C799        C800   1.403       .  A
C799        C803   1.509       .  S
C800        H804   1.084       .  S
C801        H811   1.111       .  S
C801        H812   1.110       .  S
C801        H813   1.110       .  S
C803        H814   1.111       .  S
C803        H815   1.111       .  S
C803        H816   1.109       .  S
C817        C818   1.400   1_455  A
C817        C822   1.402       .  A
C817        H827   1.084       .  S
C818        C819   1.412       .  A
C818        C823   1.480       .  S
C819        C820   1.403       .  A
C819        C824   1.507       .  S
C820        C821   1.404       .  A
C820        H825   1.084       .  S
C821        C822   1.416   1_655  A
C822        C826   1.507       .  S
C823        C828   1.407       .  A
C823        C832   1.400   1_655  A
C824        H840   1.110       .  S
C824        H841   1.109       .  S
C824        H842   1.111       .  S
C826        H837   1.107       .  S
C826        H838   1.110       .  S
C826        H839   1.110       .  S
C828        C829   1.405       .  A
C828        C833   1.506       .  S
C829        C830   1.408       .  A
C829        H834   1.084       .  S
C830        C831   1.420       .  A
C831        C832   1.403   1_655  A
C831        C835   1.509   1_655  S
C832        H836   1.084       .  S
C833        H843   1.111       .  S
C833        H844   1.110   1_655  S
C833        H845   1.109       .  S
C835        H846   1.111       .  S
C835        H847   1.109   1_455  S
C835        H848   1.111       .  S
C849        C850   1.401       .  A
C849        C854   1.402       .  A
C849        H859   1.085       .  S
C850        C851   1.411       .  A
C850        C855   1.480       .  S
C851        C852   1.404       .  A
C851        C856   1.506       .  S
C852        C853   1.404       .  A
C852        H857   1.084       .  S
C853        C854   1.414       .  A
C854        C858   1.506       .  S
C855        C860   1.408       .  A
C855        C864   1.402       .  A
C856        H872   1.110       .  S
C856        H873   1.110       .  S
C856        H874   1.111       .  S
C858        H869   1.110       .  S
C858        H870   1.110       .  S
C858        H871   1.108       .  S
C860        C861   1.398       .  A
C860        C865   1.508       .  S
C861        C862   1.407       .  A
C861        H866   1.084       .  S
C862        C863   1.419       .  A
C863        C864   1.408       .  A
C863        C867   1.507       .  S
C864        H868   1.084       .  S
C865        H875   1.111       .  S
C865        H876   1.110       .  S
C865        H877   1.110       .  S
C867        H878   1.111       .  S
C867        H879   1.110       .  S
C867        H880   1.110       .  S
C881        C882   1.401       .  A
C881        C886   1.404       .  A
C881        H891   1.084       .  S
C882        C883   1.411       .  A
C882        C887   1.480       .  S
C883        C884   1.401       .  A
C883        C888   1.507       .  S
C884        C885   1.403       .  A
C884        H889   1.084       .  S
C885        C886   1.416       .  A
C886        C890   1.507       .  S
C887        C892   1.409       .  A
C887        C896   1.398       .  A
C888        H904   1.110       .  S
C888        H905   1.110       .  S
C888        H906   1.111       .  S
C890        H901   1.110       .  S
C890        H902   1.110       .  S
C890        H903   1.108       .  S
C892        C893   1.405       .  A
C892        C897   1.507       .  S
C893        C894   1.408       .  A
C893        H898   1.084       .  S
C894        C895   1.423       .  A
C895        C896   1.404       .  A
C895        C899   1.509       .  S
C896        H900   1.084       .  S
C897        H907   1.111       .  S
C897        H908   1.110       .  S
C897        H909   1.110       .  S
C899        H910   1.111       .  S
C899        H911   1.110       .  S
C899        H912   1.109       .  S
C913        C914   1.401       .  A
C913        C918   1.400       .  A
C913        H923   1.085       .  S
C914        C915   1.410       .  A
C914        C919   1.479       .  S
C915        C916   1.405       .  A
C915        C920   1.505       .  S
C916        C917   1.403       .  A
C916        H921   1.084       .  S
C917        C918   1.414       .  A
C918        C922   1.507       .  S
C919        C924   1.410       .  A
C919        C928   1.398       .  A
C920        H936   1.110       .  S
C920        H937   1.110       .  S
C920        H938   1.111       .  S
C922        H933   1.110       .  S
C922        H934   1.110       .  S
C922        H935   1.108       .  S
C924        C925   1.402       .  A
C924        C929   1.508       .  S
C925        C926   1.407       .  A
C925        H930   1.084       .  S
C926        C927   1.422       .  A
C927        C928   1.405       .  A
C927        C931   1.508       .  S
C928        H932   1.084       .  S
C929        H939   1.111       .  S
C929        H940   1.110       .  S
C929        H941   1.110       .  S
C931        H942   1.110       .  S
C931        H943   1.110       .  S
C931        H944   1.111       .  S
C945        C946   1.400       .  A
C945        C950   1.402       .  A
C945        H955   1.085       .  S
C946        C947   1.411       .  A
C946        C951   1.479       .  S
C947        C948   1.404       .  A
C947        C952   1.506       .  S
C948        C949   1.403       .  A
C948        H953   1.084       .  S
C949        C950   1.415       .  A
C950        C954   1.507       .  S
C951        C956   1.407       .  A
C951        C960   1.401       .  A
C952        H968   1.110       .  S
C952        H969   1.110       .  S
C952        H970   1.111       .  S
C954        H965   1.110       .  S
C954        H966   1.111       .  S
C954        H967   1.108       .  S
C956        C957   1.398       .  A
C956        C961   1.509       .  S
C957        C958   1.409       .  A
C957        H962   1.084       .  S
C958        C959   1.421       .  A
C959        C960   1.409       .  A
C959        C963   1.507       .  S
C960        H964   1.084       .  S
C961        H971   1.111       .  S
C961        H972   1.110       .  S
C961        H973   1.110       .  S
C963        H974   1.111       .  S
C963        H975   1.110       .  S
C963        H976   1.110       .  S
C977        C978   1.403   1_455  A
C977        C982   1.405       .  A
C977        H987   1.084       .  S
C978        C979   1.411       .  A
C978        C983   1.488   1_655  S
C979        C980   1.405       .  A
C979        C984   1.506       .  S
C980        C981   1.406       .  A
C980        H985   1.084       .  S
C981        C982   1.415   1_655  A
C982        C986   1.507       .  S
C983        C988   1.410       .  A
C983        C992   1.402   1_455  A
C984       H1000   1.110       .  S
C984       H1001   1.111       .  S
C984       H1002   1.111       .  S
C986        H997   1.110       .  S
C986        H998   1.110       .  S
C986        H999   1.107       .  S
C988        C989   1.403       .  A
C988        C993   1.509       .  S
C989        C990   1.410       .  A
C989        H994   1.084       .  S
C990        C991   1.422   1_455  A
C991        C992   1.411       .  A
C991        C995   1.507       .  S
C992        H996   1.084       .  S
C993       H1003   1.111       .  S
C993       H1004   1.110       .  S
C993       H1005   1.110       .  S
C995       H1006   1.109       .  S
C995       H1007   1.111       .  S
C995       H1008   1.111       .  S
C1009      C1010   1.401       .  A
C1009      C1014   1.401       .  A
C1009      H1019   1.085       .  S
C1010      C1011   1.410   1_655  A
C1010      C1015   1.482       .  S
C1011      C1012   1.407       .  A
C1011      C1016   1.505       .  S
C1012      C1013   1.405   1_455  A
C1012      H1017   1.084       .  S
C1013      C1014   1.414       .  A
C1014      C1018   1.507       .  S
C1015      C1020   1.410   1_655  A
C1015      C1024   1.399       .  A
C1016      H1032   1.110       .  S
C1016      H1033   1.110       .  S
C1016      H1034   1.111       .  S
C1018      H1029   1.110       .  S
C1018      H1030   1.110       .  S
C1018      H1031   1.108       .  S
C1020      C1021   1.401   1_455  A
C1020      C1025   1.508       .  S
C1021      C1022   1.406       .  A
C1021      H1026   1.084   1_655  S
C1022      C1023   1.424       .  A
C1023      C1024   1.409       .  A
C1023      C1027   1.508       .  S
C1024      H1028   1.084       .  S
C1025      H1035   1.111       .  S
C1025      H1036   1.110   1_455  S
C1025      H1037   1.110       .  S
C1027      H1038   1.110       .  S
C1027      H1039   1.110       .  S
C1027      H1040   1.111       .  S
C1041      C1042   1.401       .  A
C1041      C1046   1.409       .  A
C1041      H1051   1.084   1_655  S
C1042      C1043   1.409       .  A
C1042      C1047   1.483       .  S
C1043      C1044   1.401       .  A
C1043      C1048   1.508       .  S
C1044      C1045   1.409       .  A
C1044      H1049   1.084       .  S
C1045      C1046   1.423       .  A
C1046      C1050   1.508       .  S
C1047      C1052   1.411   1_655  A
C1047      C1056   1.402       .  A
C1048      H1064   1.110       .  S
C1048      H1065   1.110       .  S
C1048      H1066   1.111       .  S
C1050      H1061   1.111   1_655  S
C1050      H1062   1.109       .  S
C1050      H1063   1.110   1_655  S
C1052      C1053   1.404       .  A
C1052      C1057   1.506       .  S
C1053      C1054   1.404   1_455  A
C1053      H1058   1.084       .  S
C1054      C1055   1.416       .  A
C1055      C1056   1.404       .  A
C1055      C1059   1.507       .  S
C1056      H1060   1.084       .  S
C1057      H1067   1.111       .  S
C1057      H1068   1.110       .  S
C1057      H1069   1.110       .  S
C1059      H1070   1.110       .  S
C1059      H1071   1.108       .  S
C1059      H1072   1.110       .  S
C1073      C1074   1.401       .  A
C1073      C1078   1.410       .  A
C1073      H1083   1.084       .  S
C1074      C1075   1.406       .  A
C1074      C1079   1.482       .  S
C1075      C1076   1.400       .  A
C1075      C1080   1.508       .  S
C1076      C1077   1.411       .  A
C1076      H1081   1.083       .  S
C1077      C1078   1.425       .  A
C1078      C1082   1.507       .  S
C1079      C1084   1.411   1_455  A
C1079      C1088   1.402       .  A
C1080      H1096   1.110       .  S
C1080      H1097   1.110   1_455  S
C1080      H1098   1.111       .  S
C1082      H1093   1.111       .  S
C1082      H1094   1.110       .  S
C1082      H1095   1.110       .  S
C1084      C1085   1.405       .  A
C1084      C1089   1.505       .  S
C1085      C1086   1.404   1_655  A
C1085      H1090   1.084       .  S
C1086      C1087   1.413       .  A
C1087      C1088   1.402       .  A
C1087      C1091   1.507       .  S
C1088      H1092   1.084       .  S
C1089      H1099   1.111       .  S
C1089      H1100   1.110       .  S
C1089      H1101   1.110       .  S
C1091      H1102   1.110       .  S
C1091      H1103   1.108       .  S
C1091      H1104   1.110       .  S
C1105      C1106   1.401       .  A
C1105      C1110   1.403       .  A
C1105      H1115   1.084       .  S
C1106      C1107   1.411   1_545  A
C1106      C1111   1.486       .  S
C1107      C1108   1.408       .  A
C1107      C1112   1.505       .  S
C1108      C1109   1.405   1_565  A
C1108      H1113   1.084       .  S
C1109      C1110   1.416       .  A
C1110      C1114   1.507       .  S
C1111      C1116   1.411       .  A
C1111      C1120   1.401       .  A
C1112      H1128   1.110       .  S
C1112      H1129   1.110       .  S
C1112      H1130   1.111       .  S
C1114      H1125   1.110       .  S
C1114      H1126   1.110       .  S
C1114      H1127   1.109       .  S
C1116      C1117   1.404       .  A
C1116      C1121   1.508   1_545  S
C1117      C1118   1.407       .  A
C1117      H1122   1.084   1_545  S
C1118      C1119   1.420       .  A
C1119      C1120   1.409       .  A
C1119      C1123   1.507       .  S
C1120      H1124   1.084       .  S
C1121      H1131   1.111       .  S
C1121      H1132   1.110   1_565  S
C1121      H1133   1.110       .  S
C1123      H1134   1.111       .  S
C1123      H1135   1.110       .  S
C1123      H1136   1.111       .  S
C1137      C1138   1.403       .  A
C1137      C1142   1.404       .  A
C1137      H1147   1.084       .  S
C1138      C1139   1.413   1_565  A
C1138      C1143   1.488       .  S
C1139      C1140   1.407       .  A
C1139      C1144   1.506       .  S
C1140      C1141   1.404   1_545  A
C1140      H1145   1.084       .  S
C1141      C1142   1.415       .  A
C1142      C1146   1.507       .  S
C1143      C1148   1.410       .  A
C1143      C1152   1.403       .  A
C1144      H1160   1.110       .  S
C1144      H1161   1.108       .  S
C1144      H1162   1.111       .  S
C1146      H1157   1.110       .  S
C1146      H1158   1.110       .  S
C1146      H1159   1.109       .  S
C1148      C1149   1.403       .  A
C1148      C1153   1.509       .  S
C1149      C1150   1.409       .  A
C1149      H1154   1.084       .  S
C1150      C1151   1.422       .  A
C1151      C1152   1.413       .  A
C1151      C1155   1.506       .  S
C1152      H1156   1.084       .  S
C1153      H1163   1.111       .  S
C1153      H1164   1.110       .  S
C1153      H1165   1.108   1_565  S
C1155      H1166   1.111       .  S
C1155      H1167   1.110       .  S
C1155      H1168   1.110       .  S
C1169      C1170   1.402       .  A
C1169      C1174   1.403       .  A
C1169      H1179   1.084       .  S
C1170      C1171   1.412   1_554  A
C1170      C1175   1.485       .  S
C1171      C1172   1.406       .  A
C1171      C1176   1.505       .  S
C1172      C1173   1.403   1_556  A
C1172      H1177   1.084       .  S
C1173      C1174   1.416       .  A
C1174      C1178   1.507       .  S
C1175      C1180   1.410       .  A
C1175      C1184   1.401       .  A
C1176      H1192   1.110       .  S
C1176      H1193   1.110       .  S
C1176      H1194   1.111       .  S
C1178      H1189   1.110       .  S
C1178      H1190   1.110       .  S
C1178      H1191   1.109       .  S
C1180      C1181   1.403       .  A
C1180      C1185   1.508   1_554  S
C1181      C1182   1.407       .  A
C1181      H1186   1.084       .  S
C1182      C1183   1.422       .  A
C1183      C1184   1.409       .  A
C1183      C1187   1.508       .  S
C1184      H1188   1.084       .  S
C1185      H1195   1.111       .  S
C1185      H1196   1.110   1_556  S
C1185      H1197   1.110       .  S
C1187      H1198   1.111       .  S
C1187      H1199   1.111       .  S
C1187      H1200   1.110       .  S
C1201      C1202   1.399       .  A
C1201      C1206   1.405       .  A
C1201      H1211   1.084   1_554  S
C1202      C1203   1.407       .  A
C1202      C1207   1.475       .  S
C1203      C1204   1.399       .  A
C1203      C1208   1.508       .  S
C1204      C1205   1.409       .  A
C1204      H1209   1.084       .  S
C1205      C1206   1.422       .  A
C1206      C1210   1.507   1_554  S
C1207      C1212   1.410   1_554  A
C1207      C1216   1.401       .  A
C1208      H1224   1.110       .  S
C1208      H1225   1.111   1_554  S
C1208      H1226   1.111       .  S
C1210      H1221   1.111       .  S
C1210      H1222   1.109   1_556  S
C1210      H1223   1.110       .  S
C1212      C1213   1.401       .  A
C1212      C1217   1.506       .  S
C1213      C1214   1.401       .  A
C1213      H1218   1.084       .  S
C1214      C1215   1.413   1_556  A
C1215      C1216   1.399       .  A
C1215      C1219   1.508       .  S
C1216      H1220   1.085       .  S
C1217      H1227   1.111       .  S
C1217      H1228   1.110       .  S
C1217      H1229   1.110       .  S
C1219      H1230   1.110       .  S
C1219      H1231   1.108       .  S
C1219      H1232   1.111       .  S
C1233      C1234   1.399   1_565  A
C1233      C1238   1.402       .  A
C1233      H1243   1.084       .  S
C1234      C1235   1.410       .  A
C1234      C1239   1.481       .  S
C1235      C1236   1.407       .  A
C1235      C1240   1.506       .  S
C1236      C1237   1.408       .  A
C1236      H1241   1.084       .  S
C1237      C1238   1.418   1_545  A
C1238      C1242   1.509       .  S
C1239      C1244   1.413       .  A
C1239      C1248   1.402   1_545  A
C1240      H1256   1.110       .  S
C1240      H1257   1.109       .  S
C1240      H1258   1.111       .  S
C1242      H1253   1.111       .  S
C1242      H1254   1.110       .  S
C1242      H1255   1.109   1_565  S
C1244      C1245   1.402       .  A
C1244      C1249   1.508       .  S
C1245      C1246   1.402       .  A
C1245      H1250   1.084       .  S
C1246      C1247   1.415   1_545  A
C1247      C1248   1.404       .  A
C1247      C1251   1.507       .  S
C1248      H1252   1.084       .  S
C1249      H1259   1.111       .  S
C1249      H1260   1.110       .  S
C1249      H1261   1.109       .  S
C1251      H1262   1.110       .  S
C1251      H1263   1.108       .  S
C1251      H1264   1.110       .  S
C1265      C1266   1.402       .  A
C1265      C1270   1.403       .  A
C1265      H1275   1.084       .  S
C1266      C1267   1.410   1_545  A
C1266      C1271   1.481       .  S
C1267      C1268   1.404       .  A
C1267      C1272   1.506       .  S
C1268      C1269   1.403   1_565  A
C1268      H1273   1.084       .  S
C1269      C1270   1.415       .  A
C1270      C1274   1.508       .  S
C1271      C1276   1.408       .  A
C1271      C1280   1.401       .  A
C1272      H1288   1.110       .  S
C1272      H1289   1.110       .  S
C1272      H1290   1.111       .  S
C1274      H1285   1.108       .  S
C1274      H1286   1.110       .  S
C1274      H1287   1.110       .  S
C1276      C1277   1.400       .  A
C1276      C1281   1.508       .  S
C1277      C1278   1.408       .  A
C1277      H1282   1.084       .  S
C1278      C1279   1.420       .  A
C1279      C1280   1.409       .  A
C1279      C1283   1.507   1_545  S
C1280      H1284   1.084   1_545  S
C1281      H1291   1.111       .  S
C1281      H1292   1.110       .  S
C1281      H1293   1.110       .  S
C1283      H1294   1.109   1_565  S
C1283      H1295   1.111       .  S
C1283      H1296   1.111       .  S
C1297      C1298   1.402   1_554  A
C1297      C1302   1.407       .  A
C1297      H1307   1.084       .  S
C1298      C1299   1.413       .  A
C1298      C1303   1.487       .  S
C1299      C1300   1.405       .  A
C1299      C1304   1.507       .  S
C1300      C1301   1.403       .  A
C1300      H1305   1.084       .  S
C1301      C1302   1.417   1_556  A
C1302      C1306   1.507       .  S
C1303      C1308   1.410       .  A
C1303      C1312   1.399       .  A
C1304      H1320   1.110       .  S
C1304      H1321   1.109       .  S
C1304      H1322   1.111       .  S
C1306      H1317   1.110       .  S
C1306      H1318   1.110       .  S
C1306      H1319   1.108       .  S
C1308      C1309   1.408       .  A
C1308      C1313   1.506       .  S
C1309      C1310   1.411       .  A
C1309      H1314   1.084       .  S
C1310      C1311   1.423       .  A
C1311      C1312   1.406       .  A
C1311      C1315   1.509   1_556  S
C1312      H1316   1.084   1_556  S
C1313      H1323   1.111       .  S
C1313      H1324   1.110       .  S
C1313      H1325   1.109       .  S
C1315      H1326   1.111       .  S
C1315      H1327   1.110       .  S
C1315      H1328   1.109   1_554  S
C1329      C1330   1.396       .  A
C1329      C1334   1.403       .  A
C1329      H1339   1.085       .  S
C1330      C1331   1.407       .  A
C1330      C1335   1.483       .  S
C1331      C1332   1.409       .  A
C1331      C1336   1.505   1_556  S
C1332      C1333   1.413       .  A
C1332      H1337   1.083   1_556  S
C1333      C1334   1.428       .  A
C1334      C1338   1.510       .  S
C1335      C1340   1.413       .  A
C1335      C1344   1.402   1_556  A
C1336      H1352   1.110       .  S
C1336      H1353   1.110   1_554  S
C1336      H1354   1.111       .  S
C1338      H1349   1.111       .  S
C1338      H1350   1.110       .  S
C1338      H1351   1.110       .  S
C1340      C1341   1.404       .  A
C1340      C1345   1.506       .  S
C1341      C1342   1.402       .  A
C1341      H1346   1.084       .  S
C1342      C1343   1.413   1_556  A
C1343      C1344   1.405       .  A
C1343      C1347   1.506       .  S
C1344      H1348   1.084       .  S
C1345      H1355   1.111       .  S
C1345      H1356   1.110       .  S
C1345      H1357   1.110       .  S
C1347      H1358   1.111       .  S
C1347      H1359   1.110       .  S
C1347      H1360   1.110       .  S
C1361      C1362   1.399       .  A
C1361      C1366   1.407       .  A
C1361      H1371   1.084       .  S
C1362      C1363   1.407       .  A
C1362      C1367   1.479       .  S
C1363      C1364   1.400       .  A
C1363      C1368   1.508       .  S
C1364      C1365   1.410       .  A
C1364      H1369   1.083       .  S
C1365      C1366   1.423       .  A
C1366      C1370   1.508       .  S
C1367      C1372   1.410       .  A
C1367      C1376   1.401       .  A
C1368      H1384   1.110       .  S
C1368      H1385   1.110       .  S
C1368      H1386   1.111       .  S
C1370      H1381   1.111       .  S
C1370      H1382   1.110       .  S
C1370      H1383   1.110       .  S
C1372      C1373   1.403       .  A
C1372      C1377   1.506       .  S
C1373      C1374   1.403       .  A
C1373      H1378   1.084       .  S
C1374      C1375   1.414       .  A
C1375      C1376   1.402       .  A
C1375      C1379   1.507       .  S
C1376      H1380   1.085       .  S
C1377      H1387   1.111       .  S
C1377      H1388   1.110       .  S
C1377      H1389   1.110       .  S
C1379      H1390   1.111       .  S
C1379      H1391   1.108       .  S
C1379      H1392   1.110       .  S
C1393      C1394   1.402       .  A
C1393      C1398   1.403       .  A
C1393      H1403   1.084       .  S
C1394      C1395   1.411   1_565  A
C1394      C1399   1.483       .  S
C1395      C1396   1.404       .  A
C1395      C1400   1.506       .  S
C1396      C1397   1.403   1_545  A
C1396      H1401   1.084       .  S
C1397      C1398   1.414       .  A
C1398      C1402   1.507       .  S
C1399      C1404   1.408       .  A
C1399      C1408   1.401       .  A
C1400      H1416   1.110       .  S
C1400      H1417   1.110       .  S
C1400      H1418   1.111       .  S
C1402      H1413   1.110       .  S
C1402      H1414   1.110       .  S
C1402      H1415   1.108       .  S
C1404      C1405   1.399       .  A
C1404      C1409   1.509       .  S
C1405      C1406   1.410       .  A
C1405      H1410   1.083       .  S
C1406      C1407   1.426       .  A
C1407      C1408   1.412       .  A
C1407      C1411   1.507       .  S
C1408      H1412   1.084   1_565  S
C1409      H1419   1.111       .  S
C1409      H1420   1.110       .  S
C1409      H1421   1.110   1_565  S
C1411      H1422   1.111   1_565  S
C1411      H1423   1.110       .  S
C1411      H1424   1.110   1_565  S
C1425      C1426   1.398       .  A
C1425      C1430   1.405       .  A
C1425      H1435   1.084       .  S
C1426      C1427   1.410       .  A
C1426      C1431   1.485       .  S
C1427      C1428   1.408       .  A
C1427      C1432   1.506       .  S
C1428      C1429   1.410       .  A
C1428      H1433   1.084       .  S
C1429      C1430   1.424       .  A
C1430      C1434   1.509       .  S
C1431      C1436   1.412       .  A
C1431      C1440   1.401       .  A
C1432      H1448   1.110       .  S
C1432      H1449   1.110       .  S
C1432      H1450   1.111       .  S
C1434      H1445   1.109       .  S
C1434      H1446   1.111       .  S
C1434      H1447   1.110       .  S
C1436      C1437   1.404       .  A
C1436      C1441   1.507       .  S
C1437      C1438   1.403       .  A
C1437      H1442   1.084       .  S
C1438      C1439   1.418       .  A
C1439      C1440   1.406       .  A
C1439      C1443   1.507       .  S
C1440      H1444   1.084       .  S
C1441      H1451   1.111       .  S
C1441      H1452   1.110       .  S
C1441      H1453   1.110       .  S
C1443      H1454   1.110       .  S
C1443      H1455   1.108       .  S
C1443      H1456   1.110       .  S
C1457      C1458   1.402       .  A
C1457      C1462   1.411       .  A
C1457      H1467   1.084       .  S
C1458      C1459   1.409       .  A
C1458      C1463   1.490       .  S
C1459      C1460   1.404       .  A
C1459      C1464   1.507   1_565  S
C1460      C1461   1.411       .  A
C1460      H1465   1.083       .  S
C1461      C1462   1.424       .  A
C1462      C1466   1.508       .  S
C1463      C1468   1.412   1_565  A
C1463      C1472   1.402       .  A
C1464      H1480   1.110   1_545  S
C1464      H1481   1.110       .  S
C1464      H1482   1.111       .  S
C1466      H1477   1.110       .  S
C1466      H1478   1.111       .  S
C1466      H1479   1.110       .  S
C1468      C1469   1.409       .  A
C1468      C1473   1.505       .  S
C1469      C1470   1.406   1_545  A
C1469      H1474   1.084       .  S
C1470      C1471   1.416       .  A
C1471      C1472   1.404       .  A
C1471      C1475   1.507       .  S
C1472      H1476   1.084       .  S
C1473      H1483   1.111       .  S
C1473      H1484   1.110       .  S
C1473      H1485   1.110       .  S
C1475      H1486   1.110       .  S
C1475      H1487   1.108       .  S
C1475      H1488   1.110       .  S
C1489      C1490   1.400       .  A
C1489      C1494   1.408       .  A
C1489      H1499   1.085       .  S
C1490      C1491   1.411       .  A
C1490      C1495   1.486       .  S
C1491      C1492   1.406       .  A
C1491      C1496   1.508       .  S
C1492      C1493   1.407       .  A
C1492      H1497   1.084       .  S
C1493      C1494   1.423       .  A
C1494      C1498   1.509       .  S
C1495      C1500   1.412       .  A
C1495      C1504   1.401       .  A
C1496      H1512   1.110       .  S
C1496      H1513   1.110       .  S
C1496      H1514   1.111       .  S
C1498      H1509   1.110       .  S
C1498      H1510   1.111       .  S
C1498      H1511   1.104       .  S
C1500      C1501   1.408       .  A
C1500      C1505   1.505       .  S
C1501      C1502   1.405       .  A
C1501      H1506   1.084       .  S
C1502      C1503   1.416       .  A
C1503      C1504   1.401       .  A
C1503      C1507   1.508       .  S
C1504      H1508   1.085       .  S
C1505      H1515   1.111       .  S
C1505      H1516   1.110       .  S
C1505      H1517   1.110       .  S
C1507      H1518   1.110       .  S
C1507      H1519   1.108       .  S
C1507      H1520   1.111       .  S
C1521      C1522   1.402       .  A
C1521      C1526   1.403       .  A
C1521      H1531   1.084       .  S
C1522      C1523   1.411       .  A
C1522      C1527   1.484       .  S
C1523      C1524   1.405       .  A
C1523      C1528   1.506       .  S
C1524      C1525   1.404       .  A
C1524      H1529   1.084       .  S
C1525      C1526   1.414       .  A
C1526      C1530   1.507       .  S
C1527      C1532   1.408       .  A
C1527      C1536   1.401       .  A
C1528      H1544   1.110       .  S
C1528      H1545   1.110       .  S
C1528      H1546   1.111       .  S
C1530      H1541   1.111       .  S
C1530      H1542   1.110       .  S
C1530      H1543   1.108       .  S
C1532      C1533   1.400       .  A
C1532      C1537   1.509       .  S
C1533      C1534   1.411       .  A
C1533      H1538   1.083       .  S
C1534      C1535   1.426       .  A
C1535      C1536   1.412       .  A
C1535      C1539   1.507       .  S
C1536      H1540   1.084       .  S
C1537      H1547   1.110       .  S
C1537      H1548   1.110       .  S
C1537      H1549   1.110       .  S
C1539      H1550   1.110       .  S
C1539      H1551   1.110       .  S
C1539      H1552   1.111       .  S
C1553      C1554   1.398       .  A
C1553      C1558   1.403       .  A
C1553      H1563   1.085       .  S
C1554      C1555   1.408       .  A
C1554      C1559   1.483       .  S
C1555      C1556   1.409       .  A
C1555      C1560   1.505       .  S
C1556      C1557   1.412       .  A
C1556      H1561   1.084       .  S
C1557      C1558   1.423       .  A
C1558      C1562   1.509       .  S
C1559      C1564   1.412       .  A
C1559      C1568   1.402       .  A
C1560      H1576   1.110       .  S
C1560      H1577   1.110       .  S
C1560      H1578   1.111       .  S
C1562      H1573   1.109       .  S
C1562      H1574   1.111       .  S
C1562      H1575   1.110       .  S
C1564      C1565   1.403       .  A
C1564      C1569   1.507       .  S
C1565      C1566   1.402       .  A
C1565      H1570   1.084       .  S
C1566      C1567   1.415       .  A
C1567      C1568   1.405       .  A
C1567      C1571   1.507       .  S
C1568      H1572   1.084       .  S
C1569      H1579   1.111       .  S
C1569      H1580   1.110       .  S
C1569      H1581   1.110       .  S
C1571      H1582   1.110       .  S
C1571      H1583   1.109       .  S
C1571      H1584   1.110       .  S
C1585      C1586   1.403       .  A
C1585      C1590   1.404       .  A
C1585      H1595   1.084       .  S
C1586      C1587   1.411       .  A
C1586      C1591   1.487       .  S
C1587      C1588   1.405       .  A
C1587      C1592   1.506       .  S
C1588      C1589   1.405       .  A
C1588      H1593   1.084       .  S
C1589      C1590   1.414       .  A
C1590      C1594   1.506       .  S
C1591      C1596   1.410       .  A
C1591      C1600   1.402       .  A
C1592      H1608   1.110       .  S
C1592      H1609   1.110       .  S
C1592      H1610   1.111       .  S
C1594      H1605   1.110       .  S
C1594      H1606   1.110       .  S
C1594      H1607   1.108       .  S
C1596      C1597   1.401       .  A
C1596      C1601   1.509       .  S
C1597      C1598   1.409       .  A
C1597      H1602   1.084       .  S
C1598      C1599   1.422       .  A
C1599      C1600   1.411       .  A
C1599      C1603   1.507       .  S
C1600      H1604   1.084       .  S
C1601      H1611   1.111       .  S
C1601      H1612   1.110       .  S
C1601      H1613   1.110       .  S
C1603      H1614   1.110       .  S
C1603      H1615   1.110       .  S
C1603      H1616   1.111       .  S
C1617      C1618   1.402       .  A
C1617      C1622   1.403       .  A
C1617      H1627   1.084       .  S
C1618      C1619   1.411       .  A
C1618      C1623   1.484       .  S
C1619      C1620   1.405       .  A
C1619      C1624   1.505   1_556  S
C1620      C1621   1.404       .  A
C1620      H1625   1.084   1_556  S
C1621      C1622   1.415       .  A
C1622      C1626   1.507       .  S
C1623      C1628   1.408       .  A
C1623      C1632   1.399       .  A
C1624      H1640   1.110       .  S
C1624      H1641   1.110       .  S
C1624      H1642   1.111       .  S
C1626      H1637   1.110       .  S
C1626      H1638   1.108       .  S
C1626      H1639   1.110       .  S
C1628      C1629   1.404       .  A
C1628      C1633   1.507       .  S
C1629      C1630   1.411       .  A
C1629      H1634   1.083       .  S
C1630      C1631   1.425       .  A
C1631      C1632   1.408       .  A
C1631      C1635   1.508       .  S
C1632      H1636   1.084       .  S
C1633      H1643   1.111       .  S
C1633      H1644   1.110       .  S
C1633      H1645   1.110   1_556  S
C1635      H1646   1.111       .  S
C1635      H1647   1.110       .  S
C1635      H1648   1.110       .  S
C1649      C1650   1.399       .  A
C1649      C1654   1.407       .  A
C1649      H1659   1.084       .  S
C1650      C1651   1.408       .  A
C1650      C1655   1.477       .  S
C1651      C1652   1.400       .  A
C1651      C1656   1.509       .  S
C1652      C1653   1.408       .  A
C1652      H1657   1.084       .  S
C1653      C1654   1.424       .  A
C1654      C1658   1.508       .  S
C1655      C1660   1.410       .  A
C1655      C1664   1.402       .  A
C1656      H1672   1.110       .  S
C1656      H1673   1.109       .  S
C1656      H1674   1.110       .  S
C1658      H1669   1.111       .  S
C1658      H1670   1.110       .  S
C1658      H1671   1.110       .  S
C1660      C1661   1.402       .  A
C1660      C1665   1.506       .  S
C1661      C1662   1.403       .  A
C1661      H1666   1.084       .  S
C1662      C1663   1.413       .  A
C1663      C1664   1.401       .  A
C1663      C1667   1.507       .  S
C1664      H1668   1.085       .  S
C1665      H1675   1.111       .  S
C1665      H1676   1.110       .  S
C1665      H1677   1.109       .  S
C1667      H1678   1.111       .  S
C1667      H1679   1.108       .  S
C1667      H1680   1.110       .  S
C1681      C1682   1.404       .  A
C1681      C1686   1.414       .  A
C1681      H1691   1.084       .  S
C1682      C1683   1.411       .  A
C1682      C1687   1.494       .  S
C1683      C1684   1.403       .  A
C1683      C1688   1.509       .  S
C1684      C1685   1.409       .  A
C1684      H1689   1.083       .  S
C1685      C1686   1.424       .  A
C1686      C1690   1.507       .  S
C1687      C1692   1.413       .  A
C1687      C1696   1.404       .  A
C1688      H1704   1.109       .  S
C1688      H1705   1.111       .  S
C1688      H1706   1.111       .  S
C1690      H1701   1.111       .  S
C1690      H1702   1.110       .  S
C1690      H1703   1.111       .  S
C1692      C1693   1.408       .  A
C1692      C1697   1.506       .  S
C1693      C1694   1.406       .  A
C1693      H1698   1.084       .  S
C1694      C1695   1.416       .  A
C1695      C1696   1.406       .  A
C1695      C1699   1.507       .  S
C1696      H1700   1.084       .  S
C1697      H1707   1.111       .  S
C1697      H1708   1.110       .  S
C1697      H1709   1.110       .  S
C1699      H1710   1.110       .  S
C1699      H1711   1.107       .  S
C1699      H1712   1.110       .  S
C1713      C1714   1.400       .  A
C1713      C1718   1.412       .  A
C1713      H1723   1.084   1_556  S
C1714      C1715   1.409       .  A
C1714      C1719   1.487       .  S
C1715      C1716   1.403       .  A
C1715      C1720   1.509       .  S
C1716      C1717   1.411       .  A
C1716      H1721   1.083       .  S
C1717      C1718   1.427       .  A
C1718      C1722   1.507       .  S
C1719      C1724   1.411   1_556  A
C1719      C1728   1.403       .  A
C1720      H1736   1.110       .  S
C1720      H1737   1.110       .  S
C1720      H1738   1.110       .  S
C1722      H1733   1.110   1_556  S
C1722      H1734   1.111   1_556  S
C1722      H1735   1.110       .  S
C1724      C1725   1.405       .  A
C1724      C1729   1.506       .  S
C1725      C1726   1.404   1_554  A
C1725      H1730   1.084       .  S
C1726      C1727   1.414       .  A
C1727      C1728   1.405       .  A
C1727      C1731   1.506       .  S
C1728      H1732   1.084       .  S
C1729      H1739   1.111       .  S
C1729      H1740   1.110       .  S
C1729      H1741   1.110       .  S
C1731      H1742   1.110       .  S
C1731      H1743   1.108       .  S
C1731      H1744   1.110       .  S
C1745      C1746   1.402       .  A
C1745      C1750   1.404       .  A
C1745      H1755   1.084       .  S
C1746      C1747   1.412       .  A
C1746      C1751   1.482       .  S
C1747      C1748   1.402       .  A
C1747      C1752   1.507       .  S
C1748      C1749   1.402       .  A
C1748      H1753   1.084       .  S
C1749      C1750   1.414       .  A
C1750      C1754   1.506       .  S
C1751      C1756   1.409       .  A
C1751      C1760   1.399       .  A
C1752      H1768   1.110       .  S
C1752      H1769   1.109       .  S
C1752      H1770   1.111       .  S
C1754      H1765   1.110       .  S
C1754      H1766   1.110       .  S
C1754      H1767   1.109       .  S
C1756      C1757   1.408       .  A
C1756      C1761   1.506       .  S
C1757      C1758   1.409       .  A
C1757      H1762   1.084       .  S
C1758      C1759   1.420       .  A
C1759      C1760   1.403       .  A
C1759      C1763   1.509       .  S
C1760      H1764   1.084       .  S
C1761      H1771   1.111       .  S
C1761      H1772   1.110       .  S
C1761      H1773   1.110       .  S
C1763      H1774   1.111       .  S
C1763      H1775   1.109       .  S
C1763      H1776   1.111       .  S
C1777      C1778   1.401       .  A
C1777      C1782   1.402       .  A
C1777      H1787   1.084       .  S
C1778      C1779   1.413       .  A
C1778      C1783   1.480       .  S
C1779      C1780   1.403       .  A
C1779      C1784   1.507       .  S
C1780      C1781   1.402       .  A
C1780      H1785   1.084       .  S
C1781      C1782   1.415       .  A
C1782      C1786   1.507       .  S
C1783      C1788   1.406       .  A
C1783      C1792   1.397       .  A
C1784      H1800   1.110       .  S
C1784      H1801   1.109       .  S
C1784      H1802   1.111       .  S
C1786      H1797   1.110       .  S
C1786      H1798   1.110       .  S
C1786      H1799   1.109       .  S
C1788      C1789   1.407       .  A
C1788      C1793   1.506       .  S
C1789      C1790   1.413       .  A
C1789      H1794   1.083       .  S
C1790      C1791   1.426       .  A
C1791      C1792   1.402       .  A
C1791      C1795   1.510       .  S
C1792      H1796   1.085       .  S
C1793      H1803   1.111       .  S
C1793      H1804   1.111       .  S
C1793      H1805   1.109       .  S
C1795      H1806   1.110       .  S
C1795      H1807   1.110       .  S
C1795      H1808   1.111       .  S
C1809      C1810   1.401       .  A
C1809      C1814   1.401       .  A
C1809      H1819   1.085       .  S
C1810      C1811   1.410       .  A
C1810      C1815   1.480       .  S
C1811      C1812   1.404       .  A
C1811      C1816   1.506       .  S
C1812      C1813   1.404       .  A
C1812      H1817   1.084       .  S
C1813      C1814   1.414       .  A
C1814      C1818   1.508       .  S
C1815      C1820   1.407       .  A
C1815      C1824   1.398       .  A
C1816      H1832   1.110       .  S
C1816      H1833   1.109       .  S
C1816      H1834   1.111       .  S
C1818      H1829   1.110       .  S
C1818      H1830   1.111       .  S
C1818      H1831   1.108       .  S
C1820      C1821   1.402       .  A
C1820      C1825   1.508       .  S
C1821      C1822   1.411       .  A
C1821      H1826   1.084       .  S
C1822      C1823   1.426       .  A
C1823      C1824   1.405       .  A
C1823      C1827   1.510       .  S
C1824      H1828   1.085       .  S
C1825      H1835   1.111       .  S
C1825      H1836   1.110       .  S
C1825      H1837   1.109       .  S
C1827      H1838   1.111       .  S
C1827      H1839   1.098       .  S
C1827      H1840   1.110       .  S
C1841      C1842   1.401       .  A
C1841      C1846   1.402       .  A
C1841      H1851   1.084       .  S
C1842      C1843   1.411       .  A
C1842      C1847   1.477       .  S
C1843      C1844   1.402       .  A
C1843      C1848   1.507       .  S
C1844      C1845   1.403       .  A
C1844      H1849   1.084       .  S
C1845      C1846   1.415       .  A
C1846      C1850   1.507       .  S
C1847      C1852   1.409       .  A
C1847      C1856   1.398       .  A
C1848      H1864   1.110       .  S
C1848      H1865   1.110       .  S
C1848      H1866   1.111       .  S
C1850      H1861   1.110       .  S
C1850      H1862   1.110       .  S
C1850      H1863   1.108       .  S
C1852      C1853   1.404       .  A
C1852      C1857   1.506       .  S
C1853      C1854   1.406       .  A
C1853      H1858   1.084       .  S
C1854      C1855   1.422       .  A
C1855      C1856   1.402       .  A
C1855      C1859   1.510       .  S
C1856      H1860   1.085       .  S
C1857      H1867   1.111       .  S
C1857      H1868   1.110       .  S
C1857      H1869   1.109       .  S
C1859      H1870   1.111       .  S
C1859      H1871   1.110       .  S
C1859      H1872   1.110       .  S
C1873      C1874   1.401       .  A
C1873      C1878   1.402       .  A
C1873      H1883   1.084       .  S
C1874      C1875   1.414       .  A
C1874      C1879   1.485       .  S
C1875      C1876   1.406       .  A
C1875      C1880   1.506       .  S
C1876      C1877   1.403       .  A
C1876      H1881   1.084       .  S
C1877      C1878   1.416       .  A
C1878      C1882   1.507       .  S
C1879      C1884   1.411       .  A
C1879      C1888   1.398       .  A
C1880      H1896   1.109       .  S
C1880      H1897   1.110       .  S
C1880      H1898   1.111       .  S
C1882      H1893   1.110       .  S
C1882      H1894   1.111       .  S
C1882      H1895   1.108       .  S
C1884      C1885   1.410       .  A
C1884      C1889   1.505       .  S
C1885      C1886   1.409       .  A
C1885      H1890   1.084       .  S
C1886      C1887   1.423       .  A
C1887      C1888   1.400       .  A
C1887      C1891   1.510       .  S
C1888      H1892   1.085       .  S
C1889      H1899   1.111       .  S
C1889      H1900   1.110       .  S
C1889      H1901   1.110       .  S
C1891      H1902   1.109       .  S
C1891      H1903   1.111       .  S
C1891      H1904   1.111       .  S
C1905      C1906   1.403       .  A
C1905      C1910   1.408       .  A
C1905      H1915   1.084       .  S
C1906      C1907   1.412       .  A
C1906      C1911   1.485       .  S
C1907      C1908   1.403       .  A
C1907      C1912   1.507       .  S
C1908      C1909   1.402       .  A
C1908      H1913   1.084       .  S
C1909      C1910   1.413       .  A
C1910      C1914   1.505       .  S
C1911      C1916   1.409       .  A
C1911      C1920   1.400       .  A
C1912      H1928   1.110       .  S
C1912      H1929   1.110       .  S
C1912      H1930   1.111       .  S
C1914      H1925   1.110       .  S
C1914      H1926   1.111       .  S
C1914      H1927   1.110       .  S
C1916      C1917   1.408       .  A
C1916      C1921   1.505       .  S
C1917      C1918   1.408       .  A
C1917      H1922   1.084       .  S
C1918      C1919   1.421       .  A
C1919      C1920   1.403       .  A
C1919      C1923   1.509       .  S
C1920      H1924   1.085       .  S
C1921      H1931   1.111       .  S
C1921      H1932   1.110       .  S
C1921      H1933   1.110       .  S
C1923      H1934   1.111       .  S
C1923      H1935   1.107       .  S
C1923      H1936   1.111       .  S
C1937      C1938   1.402       .  A
C1937      C1942   1.406       .  A
C1937      H1947   1.084       .  S
C1938      C1939   1.412       .  A
C1938      C1943   1.485       .  S
C1939      C1940   1.404       .  A
C1939      C1944   1.506       .  S
C1940      C1941   1.403       .  A
C1940      H1945   1.084       .  S
C1941      C1942   1.418       .  A
C1942      C1946   1.507       .  S
C1943      C1948   1.409       .  A
C1943      C1952   1.399       .  A
C1944      H1960   1.110       .  S
C1944      H1961   1.110       .  S
C1944      H1962   1.111       .  S
C1946      H1957   1.110       .  S
C1946      H1958   1.110       .  S
C1946      H1959   1.108       .  S
C1948      C1949   1.407       .  A
C1948      C1953   1.506       .  S
C1949      C1950   1.410       .  A
C1949      H1954   1.083       .  S
C1950      C1951   1.425       .  A
C1951      C1952   1.406       .  A
C1951      C1955   1.509       .  S
C1952      H1956   1.084       .  S
C1953      H1963   1.111       .  S
C1953      H1964   1.110       .  S
C1953      H1965   1.110       .  S
C1955      H1966   1.111       .  S
C1955      H1967   1.110       .  S
C1955      H1968   1.110       .  S
C1969      C1970   1.399       .  A
C1969      C1974   1.404       .  A
C1969      H1979   1.084       .  S
C1970      C1971   1.411       .  A
C1970      C1975   1.487       .  S
C1971      C1972   1.409       .  A
C1971      C1976   1.505       .  S
C1972      C1973   1.408       .  A
C1972      H1977   1.084       .  S
C1973      C1974   1.421       .  A
C1974      C1978   1.507       .  S
C1975      C1980   1.412       .  A
C1975      C1984   1.402       .  A
C1976      H1992   1.110       .  S
C1976      H1993   1.110       .  S
C1976      H1994   1.111       .  S
C1978      H1989   1.111       .  S
C1978      H1990   1.108       .  S
C1978      H1991   1.111       .  S
C1980      C1981   1.406       .  A
C1980      C1985   1.506       .  S
C1981      C1982   1.405       .  A
C1981      H1986   1.084       .  S
C1982      C1983   1.416       .  A
C1983      C1984   1.406       .  A
C1983      C1987   1.507       .  S
C1984      H1988   1.084       .  S
C1985      H1995   1.111       .  S
C1985      H1996   1.110       .  S
C1985      H1997   1.110       .  S
C1987      H1998   1.110       .  S
C1987      H1999   1.110       .  S
C1987      H2000   1.108       .  S
C2001      C2002   1.400       .  A
C2001      C2006   1.400       .  A
C2001      H2011   1.084       .  S
C2002      C2003   1.412       .  A
C2002      C2007   1.477       .  S
C2003      C2004   1.402       .  A
C2003      C2008   1.506       .  S
C2004      C2005   1.402       .  A
C2004      H2009   1.084       .  S
C2005      C2006   1.414       .  A
C2006      C2010   1.507       .  S
C2007      C2012   1.405       .  A
C2007      C2016   1.397       .  A
C2008      H2024   1.110       .  S
C2008      H2025   1.110       .  S
C2008      H2026   1.111       .  S
C2010      H2021   1.110       .  S
C2010      H2022   1.110       .  S
C2010      H2023   1.108       .  S
C2012      C2013   1.405       .  A
C2012      C2017   1.505       .  S
C2013      C2014   1.413       .  A
C2013      H2018   1.083       .  S
C2014      C2015   1.425       .  A
C2015      C2016   1.401       .  A
C2015      C2019   1.509       .  S
C2016      H2020   1.085       .  S
C2017      H2027   1.111       .  S
C2017      H2028   1.110       .  S
C2017      H2029   1.110       .  S
C2019      H2030   1.111       .  S
C2019      H2031   1.110       .  S
C2019      H2032   1.110       .  S
C2033      C2034   1.400       .  A
C2033      C2038   1.400       .  A
C2033      H2043   1.085       .  S
C2034      C2035   1.410       .  A
C2034      C2039   1.481       .  S
C2035      C2036   1.407       .  A
C2035      C2040   1.505       .  S
C2036      C2037   1.405       .  A
C2036      H2041   1.084       .  S
C2037      C2038   1.414       .  A
C2038      C2042   1.507       .  S
C2039      C2044   1.410       .  A
C2039      C2048   1.400       .  A
C2040      H2056   1.110       .  S
C2040      H2057   1.110       .  S
C2040      H2058   1.111       .  S
C2042      H2053   1.110       .  S
C2042      H2054   1.110       .  S
C2042      H2055   1.108       .  S
C2044      C2045   1.402       .  A
C2044      C2049   1.508       .  S
C2045      C2046   1.407       .  A
C2045      H2050   1.084       .  S
C2046      C2047   1.421       .  A
C2047      C2048   1.407       .  A
C2047      C2051   1.507       .  S
C2048      H2052   1.084       .  S
C2049      H2059   1.111       .  S
C2049      H2060   1.110       .  S
C2049      H2061   1.110       .  S
C2051      H2062   1.110       .  S
C2051      H2063   1.110       .  S
C2051      H2064   1.111       .  S
C2065      C2066   1.401       .  A
C2065      C2070   1.406       .  A
C2065      H2075   1.084       .  S
C2066      C2067   1.411       .  A
C2066      C2071   1.482       .  S
C2067      C2068   1.402       .  A
C2067      C2072   1.508       .  S
C2068      C2069   1.404       .  A
C2068      H2073   1.084       .  S
C2069      C2070   1.419       .  A
C2070      C2074   1.507       .  S
C2071      C2076   1.410       .  A
C2071      C2080   1.399       .  A
C2072      H2088   1.110       .  S
C2072      H2089   1.109       .  S
C2072      H2090   1.111       .  S
C2074      H2085   1.110       .  S
C2074      H2086   1.110       .  S
C2074      H2087   1.107       .  S
C2076      C2077   1.405       .  A
C2076      C2081   1.506       .  S
C2077      C2078   1.407       .  A
C2077      H2082   1.084       .  S
C2078      C2079   1.422       .  A
C2079      C2080   1.404       .  A
C2079      C2083   1.509       .  S
C2080      H2084   1.084       .  S
C2081      H2091   1.111       .  S
C2081      H2092   1.110       .  S
C2081      H2093   1.110       .  S
C2083      H2094   1.111       .  S
C2083      H2095   1.110       .  S
C2083      H2096   1.109       .  S
C2097      C2098   1.395       .  A
C2097      C2102   1.401       .  A
C2097      H2107   1.085       .  S
C2098      C2099   1.407       .  A
C2098      C2103   1.476       .  S
C2099      C2100   1.406       .  A
C2099      C2104   1.506       .  S
C2100      C2101   1.410       .  A
C2100      H2105   1.084       .  S
C2101      C2102   1.426       .  A
C2102      C2106   1.511       .  S
C2103      C2108   1.411       .  A
C2103      C2112   1.400       .  A
C2104      H2120   1.110       .  S
C2104      H2121   1.111       .  S
C2104      H2122   1.110       .  S
C2106      H2117   1.111       .  S
C2106      H2118   1.110       .  S
C2106      H2119   1.111       .  S
C2108      C2109   1.402       .  A
C2108      C2113   1.506       .  S
C2109      C2110   1.402       .  A
C2109      H2114   1.084       .  S
C2110      C2111   1.414       .  A
C2111      C2112   1.400       .  A
C2111      C2115   1.508       .  S
C2112      H2116   1.084       .  S
C2113      H2123   1.111       .  S
C2113      H2124   1.110       .  S
C2113      H2125   1.110       .  S
C2115      H2126   1.110       .  S
C2115      H2127   1.108       .  S
C2115      H2128   1.110       .  S
