geometry optimzed in LAMMPS
_audit_creation_date              2020-11-30 
_audit_creation_method            'lammps2cif' 
_symmetry_space_group_name_H-M    'P1' 
_symmetry_Int_Tables_number       1 
_symmetry_cell_setting            triclinic 
loop_ 
_symmetry_equiv_pos_as_xyz 
  x,y,z 
_cell_length_a                    60.58491948 
_cell_length_b                    61.30594754700593 
_cell_length_c                    60.79378033936854 
_cell_angle_alpha                 90.09756749363976 
_cell_angle_beta                  90.46080480569577 
_cell_angle_gamma                 89.87527458564318 
loop_ 
_atom_site_label 
_atom_site_type_symbol 
_atom_site_fract_x 
_atom_site_fract_y 
_atom_site_fract_z 
_atom_site_charge 
N1          N  0.65052106  0.19921877  0.86251757    -0.27200
N2          N  0.64429484  0.20363828  0.84211478    -0.35000
C3          C  0.64362054  0.22536139  0.83933236     0.01200
C4          C  0.65011283  0.23510872  0.85879562     0.07200
C5          C  0.65452401  0.21811589  0.87315185    -0.05900
H6          H  0.63965588  0.23342209  0.82397801     0.07900
H7          H  0.66014844  0.21938862  0.89004021     0.09100
Cu8        Cu  0.63918791  0.18010533  0.81829255     0.44200
Cu9        Cu  0.65219270  0.16753503  0.87461411     0.42000
Cu10       Cu  0.63607564  0.12459118  0.83507107     0.43900
N11         N  0.63697814  0.15441476  0.79639092    -0.34500
N12         N  0.63472432  0.13386481  0.80243668    -0.28800
C13         C  0.63579327  0.12099908  0.78450699    -0.04900
C14         C  0.63919790  0.13418224  0.76644069     0.07300
C15         C  0.64003911  0.15519803  0.77457971     0.01100
H16         H  0.63646375  0.10336655  0.78491585     0.08800
H17         H  0.64408663  0.16982663  0.76554493     0.07800
N18         N  0.64236212  0.11947735  0.86815476    -0.36000
N19         N  0.64838771  0.13472702  0.88240238    -0.28200
C20         C  0.65053778  0.12559497  0.90241722    -0.03400
C21         C  0.64540738  0.10366083  0.90069612     0.05200
C22         C  0.64066176  0.10032024  0.87866940     0.03300
H23         H  0.65491524  0.13439603  0.91725752     0.08400
H24         H  0.63651286  0.08510629  0.87067165     0.07200
N25         N  0.87279621  0.19724265  0.66251454    -0.27200
N26         N  0.85231182  0.20203337  0.65657645    -0.35000
C27         C  0.85043676  0.22363243  0.65350724     0.01200
C28         C  0.87059826  0.23302701  0.65807493     0.07200
C29         C  0.88441637  0.21592652  0.66393513    -0.05900
H30         H  0.83524086  0.23195967  0.64921077     0.07900
H31         H  0.90159344  0.21698447  0.66881233     0.09100
Cu32       Cu  0.82717235  0.17962111  0.65439626     0.44200
Cu33       Cu  0.88369788  0.16520993  0.66707918     0.42000
Cu34       Cu  0.84212671  0.12341741  0.65371160     0.43900
N35         N  0.80426595  0.15497441  0.65233737    -0.34500
N36         N  0.80960392  0.13411258  0.65102009    -0.28800
C37         C  0.79094219  0.12221678  0.65019186    -0.04900
C38         C  0.77318191  0.13639733  0.65123561     0.07300
C39         C  0.78221026  0.15696757  0.65284894     0.01100
H40         H  0.79036597  0.10458189  0.65033953     0.08800
H41         H  0.77343115  0.17221466  0.65492171     0.07800
N42         N  0.87525301  0.11684295  0.66033998    -0.36000
N43         N  0.89012875  0.13170627  0.66592552    -0.28200
C44         C  0.90950123  0.12159276  0.67008591    -0.03400
C45         C  0.90665349  0.09941949  0.66682052     0.05200
C46         C  0.88481301  0.09700640  0.66064477     0.03300
H47         H  0.92451961  0.12975518  0.67515942     0.08400
H48         H  0.87633935  0.08186616  0.65713319     0.07200
N49         N  0.81042077  0.35309586  0.87400273    -0.27200
N50         N  0.80714006  0.36389381  0.85544649    -0.35000
C51         C  0.78534676  0.36666960  0.85226388     0.01200
C52         C  0.77440290  0.35680023  0.86941064     0.07200
C53         C  0.79075213  0.34831027  0.88289629    -0.05900
H54         H  0.77798648  0.37368267  0.83761656     0.07900
H55         H  0.78852784  0.33874954  0.89765304     0.09100
Cu56       Cu  0.83157424  0.36931787  0.83247366     0.44200
Cu57       Cu  0.84146246  0.34437307  0.88551695     0.42000
Cu58       Cu  0.88415071  0.34430896  0.84439418     0.43900
N59         N  0.85483858  0.36244369  0.80863593    -0.34500
N60         N  0.87342411  0.35182180  0.81278397    -0.28800
C61         C  0.88308764  0.34664939  0.79360889    -0.04900
C62         C  0.87008249  0.35468484  0.77665518     0.07300
C63         C  0.85236379  0.36466314  0.78674808     0.01100
H64         H  0.89823757  0.33740756  0.79212288     0.08800
H65         H  0.83804354  0.37177089  0.77876003     0.07800
N66         N  0.89033238  0.34078826  0.87784026    -0.36000
N67         N  0.87468667  0.34060664  0.89286756    -0.28200
C68         C  0.88409536  0.34002361  0.91297382    -0.03400
C69         C  0.90678391  0.33970237  0.91049461     0.05200
C70         C  0.91011762  0.34038715  0.88800331     0.03300
H71         H  0.87506477  0.34131112  0.92818737     0.08400
H72         H  0.92579591  0.34142542  0.87967629     0.07200
N73         N  0.71481887  0.35552425  0.86364906    -0.27200
N74         N  0.71829814  0.33663976  0.87357990    -0.35000
C75         C  0.73995059  0.33473370  0.87834956     0.01200
C76         C  0.75052862  0.35319400  0.87078225     0.07200
C77         C  0.73414512  0.36597695  0.86151888    -0.05900
H78         H  0.74761141  0.32033663  0.88532809     0.07900
H79         H  0.73619717  0.38141798  0.85319798     0.09100
Cu80       Cu  0.69419384  0.31283095  0.87633478     0.44200
Cu81       Cu  0.68427047  0.36593325  0.85237622     0.42000
Cu82       Cu  0.64157383  0.32569167  0.84965088     0.43900
N83         N  0.66989136  0.28994756  0.86955499    -0.34500
N84         N  0.65153640  0.29435024  0.85845745    -0.28800
C85         C  0.64124467  0.27549516  0.85361999    -0.04900
C86         C  0.65348333  0.25853586  0.86246618     0.07300
C87         C  0.67147684  0.26824894  0.87250264     0.01100
H88         H  0.62626084  0.27419450  0.84390611     0.08800
H89         H  0.68550165  0.26006632  0.87993800     0.07800
N90         N  0.63582318  0.35880174  0.84451010    -0.36000
N91         N  0.65174312  0.37349924  0.84507172    -0.28200
C92         C  0.64288842  0.39350369  0.84271883    -0.03400
C93         C  0.62026487  0.39134601  0.84056757     0.05200
C94         C  0.61633291  0.36913215  0.84198655     0.03300
H95         H  0.65210049  0.40855459  0.84397448     0.08400
H96         H  0.60041414  0.36117065  0.84207792     0.07200
N97         N  0.86987608  0.35447747  0.71682328    -0.27200
N98         N  0.88036271  0.33597159  0.72089065    -0.35000
C99         C  0.88281313  0.33363202  0.74277402     0.01200
C100        C  0.87312892  0.35138602  0.75292847     0.07200
C101        C  0.86501406  0.36424037  0.73602287    -0.05900
H102        H  0.88989938  0.31944030  0.75071281     0.07900
H103        H  0.85591962  0.37936671  0.73755753     0.09100
Cu104      Cu  0.88689579  0.31296288  0.69679684     0.44200
Cu105      Cu  0.86200961  0.36492614  0.68530195     0.42000
Cu106      Cu  0.85991642  0.32250738  0.64407317     0.43900
N107        N  0.88182440  0.28896148  0.67331213    -0.34500
N108        N  0.87033350  0.29204704  0.65498082    -0.28800
C109        C  0.86576152  0.27252512  0.64592467    -0.04900
C110        C  0.87515410  0.25649251  0.65899551     0.07300
C111        C  0.88527243  0.26746885  0.67613765     0.01100
H112        H  0.85542102  0.27012895  0.63153077     0.08800
H113        H  0.89256274  0.26028871  0.69073478     0.07800
N114        N  0.85528330  0.35534988  0.63707620    -0.36000
N115        N  0.85670673  0.37090528  0.65212495    -0.28200
C116        C  0.85524854  0.39044224  0.64218055    -0.03400
C117        C  0.85251891  0.38696329  0.61988771     0.05200
C118        C  0.85264479  0.36458593  0.61715855     0.03300
H119        H  0.85657179  0.40600340  0.65050069     0.08400
H120        H  0.85182381  0.35571645  0.60177459     0.07200
N121        N  0.71613620  0.11801236  0.65099526    -0.27200
N122        N  0.71737344  0.12818752  0.67014099    -0.35000
C123        C  0.73771750  0.13639141  0.67288340     0.01200
C124        C  0.75001491  0.13081466  0.65475759     0.07200
C125        C  0.73595217  0.11911832  0.64114219    -0.05900
H126        H  0.74328490  0.14529022  0.68727065     0.07900
H127        H  0.73971078  0.11225451  0.62519718     0.09100
Cu128      Cu  0.69211763  0.12900249  0.69254100     0.44200
Cu129      Cu  0.68684336  0.10432301  0.63962791     0.42000
Cu130      Cu  0.64296964  0.09893189  0.68123321     0.43900
N131        N  0.66722148  0.12514342  0.71499340    -0.34500
N132        N  0.64949828  0.11304742  0.71157613    -0.28800
C133        C  0.63677601  0.11379543  0.72964972    -0.04900
C134        C  0.64703735  0.12728022  0.74483974     0.07300
C135        C  0.66620274  0.13418388  0.73504132     0.01100
H136        H  0.62089704  0.10593396  0.73121761     0.08800
H137        H  0.67849572  0.14505676  0.74193419     0.07800
N138        N  0.63871283  0.09362280  0.64778766    -0.36000
N139        N  0.65426902  0.09594598  0.63279102    -0.28200
C140        C  0.64488981  0.09494859  0.61268304    -0.03400
C141        C  0.62249905  0.09171826  0.61520273     0.05200
C142        C  0.61913475  0.09099935  0.63758946     0.03300
H143        H  0.65345963  0.09798247  0.59744949     0.08400
H144        H  0.60339882  0.09050138  0.64586127     0.07200
N145        N  0.21790071  0.34189151  0.87412597    -0.27200
N146        N  0.22133258  0.35269746  0.85566653    -0.35000
C147        C  0.24307505  0.35654550  0.85365431     0.01200
C148        C  0.25383708  0.34747360  0.87156997     0.07200
C149        C  0.23740950  0.33828622  0.88419280    -0.05900
H150        H  0.25062195  0.36381357  0.83936631     0.07900
H151        H  0.23953890  0.32901125  0.89918828     0.09100
Cu152      Cu  0.19717218  0.35726098  0.83182251     0.44200
Cu153      Cu  0.18691114  0.33184600  0.88423861     0.42000
Cu154      Cu  0.14388190  0.33378939  0.84250762     0.43900
N155        N  0.17429672  0.35022954  0.80735874    -0.34500
N156        N  0.15539422  0.34013066  0.81090087    -0.28800
C157        C  0.14649124  0.33431321  0.79134824    -0.04900
C158        C  0.16039293  0.34137864  0.77482636     0.07300
C159        C  0.17773935  0.35147930  0.78559713     0.01100
H160        H  0.13140463  0.32508598  0.78934353     0.08800
H161        H  0.19259863  0.35782404  0.77823534     0.07800
N162        N  0.13780335  0.33040918  0.87607292    -0.36000
N163        N  0.15356722  0.32888624  0.89117970    -0.28200
C164        C  0.14433099  0.32848012  0.91124411    -0.03400
C165        C  0.12165705  0.32988503  0.90869322     0.05200
C166        C  0.11813788  0.33126939  0.88619662     0.03300
H167        H  0.15352571  0.32886286  0.92656669     0.08400
H168        H  0.10247968  0.33369939  0.87786853     0.07200
N169        N  0.15719602  0.17957328  0.66023611    -0.27200
N170        N  0.17568699  0.18197735  0.64910458    -0.35000
C171        C  0.17907902  0.20337299  0.64553229     0.01200
C172        C  0.16205763  0.21494113  0.65516442     0.07200
C173        C  0.14851565  0.19935508  0.66436008    -0.05900
H174        H  0.19363385  0.21006562  0.63788959     0.07900
H175        H  0.13378966  0.20219601  0.67390808     0.09100
Cu176      Cu  0.19759050  0.15649538  0.64351768     0.44200
Cu177      Cu  0.14542131  0.14957799  0.67047708     0.42000
Cu178      Cu  0.18595768  0.10655056  0.67357600     0.43900
N179        N  0.22070775  0.13205528  0.64916490    -0.34500
N180        N  0.21701644  0.11478688  0.66162813    -0.28800
C181        C  0.23638211  0.10470336  0.66574373    -0.04900
C182        C  0.25293699  0.11599480  0.65510764     0.07300
C183        C  0.24238538  0.13313893  0.64466945     0.01100
H184        H  0.23838908  0.09075155  0.67645629     0.08800
H185        H  0.25014903  0.14655532  0.63618854     0.07800
N186        N  0.15248526  0.10178392  0.67959729    -0.36000
N187        N  0.13761452  0.11752168  0.67781297    -0.28200
C188        C  0.11731966  0.10890857  0.67974662    -0.03400
C189        C  0.11950631  0.08674404  0.68325359     0.05200
C190        C  0.14200077  0.08274660  0.68300065     0.03300
H191        H  0.10207620  0.11796349  0.67785358     0.08400
H192        H  0.15004623  0.06699442  0.68381353     0.07200
N193        N  0.36518647  0.18745188  0.87367389    -0.27200
N194        N  0.37820160  0.19028652  0.85653272    -0.35000
C195        C  0.38245124  0.21170541  0.85424984     0.01200
C196        C  0.37134973  0.22294873  0.87050400     0.07200
C197        C  0.36051930  0.20708766  0.88247901    -0.05900
H198        H  0.39180762  0.21867499  0.84091710     0.07900
H199        H  0.34973248  0.20965573  0.89634632     0.09100
Cu200      Cu  0.38613801  0.16576714  0.83432735     0.44200
Cu201      Cu  0.35377818  0.15705181  0.88400368     0.42000
Cu202      Cu  0.35770002  0.11487251  0.84352230     0.43900
N203        N  0.38239598  0.14182750  0.81039341    -0.34500
N204        N  0.37094891  0.12380348  0.81368239    -0.28800
C205        C  0.36736261  0.11384583  0.79431503    -0.04900
C206        C  0.37709804  0.12607192  0.77802287     0.07300
C207        C  0.38665741  0.14363584  0.78875736     0.01100
H208        H  0.35719919  0.09950465  0.79211647     0.08800
H209        H  0.39413033  0.15774223  0.78119502     0.07800
N210        N  0.34678835  0.10920045  0.87507299    -0.36000
N211        N  0.34587575  0.12455460  0.89032332    -0.28200
C212        C  0.34128613  0.11515558  0.90975894    -0.03400
C213        C  0.33879982  0.09292097  0.90641574     0.05200
C214        C  0.34253163  0.08974265  0.88425671     0.03300
H215        H  0.34106937  0.12365001  0.92536850     0.08400
H216        H  0.34388770  0.07425583  0.87580689     0.07200
N217        N  0.31382021  0.34697637  0.86940915    -0.27200
N218        N  0.30999282  0.32868649  0.88020538    -0.35000
C219        C  0.28821819  0.32685323  0.88374789     0.01200
C220        C  0.27776769  0.34466310  0.87445125     0.07200
C221        C  0.29445070  0.35710816  0.86545436    -0.05900
H222        H  0.28042791  0.31272370  0.89094066     0.07900
H223        H  0.29258462  0.37195368  0.85601616     0.09100
Cu224      Cu  0.33343285  0.30457964  0.88503395     0.44200
Cu225      Cu  0.34516304  0.35615892  0.85935510     0.42000
Cu226      Cu  0.38683631  0.31321791  0.86087223     0.43900
N227        N  0.35567034  0.27961677  0.87926675    -0.34500
N228        N  0.37474173  0.28242162  0.86923747    -0.28800
C229        C  0.38360247  0.26267706  0.86500363    -0.04900
C230        C  0.36950957  0.24680851  0.87299414     0.07300
C231        C  0.35203644  0.25815885  0.88197721     0.01100
H232        H  0.39890496  0.26005401  0.85632977     0.08800
H233        H  0.33713766  0.25131654  0.88879458     0.07800
N234        N  0.39376795  0.34597814  0.85433109    -0.36000
N235        N  0.37845734  0.36138583  0.85328734    -0.28200
C236        C  0.38819066  0.38067212  0.84929324    -0.03400
C237        C  0.41072637  0.37738984  0.84803042     0.05200
C238        C  0.41369089  0.35518078  0.85121633     0.03300
H239        H  0.37957046  0.39611448  0.84823850     0.08400
H240        H  0.42917588  0.34637138  0.85144889     0.07200
N241        N  0.31300389  0.11804955  0.65469858    -0.27200
N242        N  0.30941795  0.11021835  0.67459490    -0.35000
C243        C  0.28765106  0.10692614  0.67714120     0.01200
C244        C  0.27692806  0.11331837  0.65806525     0.07200
C245        C  0.29347876  0.12035837  0.64418479    -0.05900
H246        H  0.28005423  0.10198159  0.69238262     0.07900
H247        H  0.29141078  0.12738632  0.62798424     0.09100
Cu248      Cu  0.33350607  0.10893180  0.69890361     0.44200
Cu249      Cu  0.34444000  0.12615592  0.64373481     0.42000
Cu250      Cu  0.38690202  0.13162529  0.68629089     0.43900
N251        N  0.35723196  0.11635470  0.72243279    -0.34500
N252        N  0.37621442  0.12598583  0.71811466    -0.28800
C253        C  0.38654987  0.13075833  0.73722731    -0.04900
C254        C  0.37352414  0.12342670  0.75426119     0.07300
C255        C  0.35513008  0.11438375  0.74430156     0.01100
H256        H  0.40228845  0.13897489  0.73859889     0.08800
H257        H  0.34078016  0.10775412  0.75237024     0.07800
N258        N  0.39334714  0.13197004  0.65280152    -0.36000
N259        N  0.37796772  0.12997263  0.63736559    -0.28200
C260        C  0.38781875  0.12871572  0.61764816    -0.03400
C261        C  0.41045613  0.13015066  0.62073877     0.05200
C262        C  0.41333389  0.13203192  0.64329155     0.03300
H263        H  0.37918563  0.12607631  0.60222770     0.08400
H264        H  0.42877201  0.13194317  0.65232324     0.07200
N265        N  0.16678038  0.33714223  0.71552573    -0.27200
N266        N  0.15452241  0.31972150  0.71922274    -0.35000
C267        C  0.14930991  0.31911554  0.74072871     0.01200
C268        C  0.15900435  0.33686335  0.75104563     0.07200
C269        C  0.16995826  0.34788089  0.73458382    -0.05900
H270        H  0.14044516  0.30595776  0.74851707     0.07900
H271        H  0.17997876  0.36236675  0.73641222     0.09100
Cu272      Cu  0.14919260  0.29565794  0.69563690     0.44200
Cu273      Cu  0.17908562  0.34546137  0.68484116     0.42000
Cu274      Cu  0.17573183  0.30464711  0.64273917     0.43900
N275        N  0.15476063  0.27128264  0.67250788    -0.34500
N276        N  0.16583126  0.27422869  0.65407331    -0.28800
C277        C  0.16971867  0.25466953  0.64474376    -0.04900
C278        C  0.16034125  0.23874527  0.65774869     0.07300
C279        C  0.15091966  0.24984513  0.67512721     0.01100
H280        H  0.17900412  0.25221257  0.62981173     0.08800
H281        H  0.14311456  0.24276050  0.68936894     0.07800
N282        N  0.18279674  0.33717975  0.63617740    -0.36000
N283        N  0.18487175  0.35202015  0.65185411    -0.28200
C284        C  0.18824905  0.37163463  0.64256964    -0.03400
C285        C  0.18822509  0.36906110  0.61994934     0.05200
C286        C  0.18448854  0.34703347  0.61647180     0.03300
H287        H  0.18918004  0.38685091  0.65156261     0.08400
H288        H  0.18239928  0.33891790  0.60077845     0.07200
N289        N  0.36625775  0.78302719  0.87498088    -0.27200
N290        N  0.37428651  0.77717191  0.85569840    -0.35000
C291        C  0.37703376  0.75535333  0.85549253     0.01200
C292        C  0.37002791  0.74722724  0.87549727     0.07200
C293        C  0.36320963  0.76517950  0.88736506    -0.05900
H294        H  0.38211129  0.74597777  0.84130496     0.07900
H295        H  0.35592842  0.76522242  0.90355703     0.09100
Cu296      Cu  0.37651122  0.79892566  0.82957285     0.44200
Cu297      Cu  0.35844103  0.81479060  0.88315962     0.42000
Cu298      Cu  0.35121637  0.85304464  0.83956022     0.43900
N299        N  0.36897902  0.82169813  0.80527007    -0.34500
N300        N  0.35856797  0.84040422  0.80872045    -0.28800
C301        C  0.35357941  0.84955603  0.78919356    -0.04900
C302        C  0.36151981  0.83617312  0.77275107     0.07300
C303        C  0.37124886  0.81873410  0.78347925     0.01100
H304        H  0.34460047  0.86469997  0.78713989     0.08800
H305        H  0.37831458  0.80432933  0.77598570     0.07800
N306        N  0.34854665  0.86165504  0.87251357    -0.36000
N307        N  0.35181858  0.84740375  0.88849651    -0.28200
C308        C  0.35127271  0.85778367  0.90794987    -0.03400
C309        C  0.34715237  0.87959125  0.90409466     0.05200
C310        C  0.34556920  0.88157014  0.88144224     0.03300
H311        H  0.35429213  0.85012334  0.92371118     0.08400
H312        H  0.34356912  0.89648480  0.87214382     0.07200
N313        N  0.14006411  0.77832273  0.65527396    -0.27200
N314        N  0.15782190  0.77568550  0.64301232    -0.35000
C315        C  0.16134650  0.75425450  0.63973793     0.01200
C316        C  0.14529224  0.74274987  0.65075033     0.07200
C317        C  0.13206988  0.75849645  0.66043858    -0.05900
H318        H  0.17565052  0.74753502  0.63158851     0.07900
H319        H  0.11823102  0.75572759  0.67121000     0.09100
Cu320      Cu  0.17996917  0.80039356  0.63630955     0.44200
Cu321      Cu  0.12893710  0.80883374  0.66615211     0.42000
Cu322      Cu  0.17155193  0.84983669  0.66748522     0.43900
N323        N  0.20471519  0.82287079  0.64240235    -0.34500
N324        N  0.20201649  0.84025507  0.65501170    -0.28800
C325        C  0.22193124  0.84900466  0.65940741    -0.04900
C326        C  0.23785968  0.83658553  0.64896795     0.07300
C327        C  0.22633641  0.82023901  0.63824199     0.01100
H328        H  0.22469313  0.86272136  0.67029772     0.08800
H329        H  0.23328069  0.80636457  0.62969919     0.07800
N330        N  0.13896074  0.85612454  0.67622267    -0.36000
N331        N  0.12311323  0.84134049  0.67512460    -0.28200
C332        C  0.10365320  0.85114736  0.67940311    -0.03400
C333        C  0.10749073  0.87304135  0.68380780     0.05200
C334        C  0.13005782  0.87557830  0.68149185     0.03300
H335        H  0.08777654  0.84312861  0.67861009     0.08400
H336        H  0.13915323  0.89073187  0.68218940     0.07200
N337        N  0.20922255  0.63811362  0.87855596    -0.27200
N338        N  0.21425109  0.62701687  0.86059256    -0.35000
C339        C  0.23602470  0.62275131  0.86066146     0.01200
C340        C  0.24527806  0.63185108  0.87936718     0.07200
C341        C  0.22784877  0.64155818  0.89033235    -0.05900
H342        H  0.24469102  0.61480137  0.84737023     0.07900
H343        H  0.22870883  0.65080682  0.90548800     0.09100
Cu344      Cu  0.19231147  0.62114111  0.83490090     0.44200
Cu345      Cu  0.17717987  0.64827571  0.88565555     0.42000
Cu346      Cu  0.13691116  0.64101274  0.84150863     0.43900
N347        N  0.16958502  0.62277696  0.80924490    -0.34500
N348        N  0.14955001  0.63100503  0.81155755    -0.28800
C349        C  0.14000325  0.63291335  0.79161313    -0.04900
C350        C  0.15461835  0.62524513  0.77604406     0.07300
C351        C  0.17318509  0.61886956  0.78776869     0.01100
H352        H  0.12394685  0.64012285  0.78860298     0.08800
H353        H  0.18871429  0.61333000  0.78107011     0.07800
N354        N  0.12876461  0.65079082  0.87307204    -0.36000
N355        N  0.14343189  0.65395233  0.88899397    -0.28200
C356        C  0.13274292  0.65975425  0.90742087    -0.03400
C357        C  0.11032999  0.66034236  0.90284958     0.05200
C358        C  0.10838869  0.65431632  0.88099880     0.03300
H359        H  0.14064087  0.66232567  0.92322958     0.08400
H360        H  0.09325861  0.65225874  0.87165483     0.07200
N361        N  0.30522819  0.62872083  0.88209341    -0.27200
N362        N  0.30174969  0.64762104  0.89204880    -0.35000
C363        C  0.27986254  0.65084588  0.89402521     0.01200
C364        C  0.26902051  0.63334161  0.88453963     0.07200
C365        C  0.28559012  0.61964206  0.87714141    -0.05900
H366        H  0.27241399  0.66573125  0.90006002     0.07900
H367        H  0.28351931  0.60467565  0.86790453     0.09100
Cu368      Cu  0.32623958  0.67070134  0.89740287     0.44200
Cu369      Cu  0.33647044  0.61693933  0.87384272     0.42000
Cu370      Cu  0.38030731  0.65653273  0.87789654     0.43900
N371        N  0.35065703  0.69352743  0.89117916    -0.34500
N372        N  0.37000303  0.68838433  0.88267788    -0.28800
C373        C  0.38028662  0.70675274  0.87637047    -0.04900
C374        C  0.36690883  0.72427168  0.88152808     0.07300
C375        C  0.34833138  0.71534690  0.89099015     0.01100
H376        H  0.39594618  0.70724343  0.86795830     0.08800
H377        H  0.33349003  0.72394571  0.89572388     0.07800
N378        N  0.38571219  0.62382174  0.87137238    -0.36000
N379        N  0.36971307  0.60933006  0.86902535    -0.28200
C380        C  0.37873372  0.58991794  0.86371772    -0.03400
C381        C  0.40143188  0.59238924  0.86301848     0.05200
C382        C  0.40526704  0.61404619  0.86789284     0.03300
H383        H  0.36949545  0.57512113  0.86067538     0.08400
H384        H  0.42107566  0.62220952  0.86843548     0.07200
N385        N  0.15745034  0.62316938  0.71624242    -0.27200
N386        N  0.14535270  0.64090520  0.71918248    -0.35000
C387        C  0.14171716  0.64365117  0.74078169     0.01200
C388        C  0.15233441  0.62708928  0.75204035     0.07200
C389        C  0.16223897  0.61440863  0.73603071    -0.05900
H390        H  0.13323637  0.65750788  0.74785002     0.07900
H391        H  0.17240281  0.60008785  0.73858002     0.09100
Cu392      Cu  0.13812752  0.66314440  0.69454938     0.44200
Cu393      Cu  0.16665293  0.61211039  0.68525622     0.42000
Cu394      Cu  0.16173393  0.65257973  0.64172619     0.43900
N395        N  0.14158063  0.68695915  0.67071071    -0.34500
N396        N  0.15178416  0.68355521  0.65187126    -0.28800
C397        C  0.15422484  0.70281328  0.64152562    -0.04900
C398        C  0.14478356  0.71898840  0.65437120     0.07300
C399        C  0.13690749  0.70832760  0.67270550     0.01100
H400        H  0.16250716  0.70492614  0.62597537     0.08800
H401        H  0.12951792  0.71571978  0.68705134     0.07800
N402        N  0.16654844  0.61935683  0.63607334    -0.36000
N403        N  0.16878724  0.60470937  0.65190926    -0.28200
C404        C  0.17064765  0.58476210  0.64278427    -0.03400
C405        C  0.16916687  0.58690827  0.62017245     0.05200
C406        C  0.16671563  0.60905967  0.61648736     0.03300
H407        H  0.17225400  0.56972403  0.65195222     0.08400
H408        H  0.16504852  0.61711110  0.60074206     0.07200
N409        N  0.29774699  0.83062502  0.64996264    -0.27200
N410        N  0.29457134  0.84222539  0.66805274    -0.35000
C411        C  0.27299528  0.84708582  0.66972324     0.01200
C412        C  0.26196013  0.83791292  0.65203031     0.07200
C413        C  0.27813379  0.82758434  0.63982558    -0.05900
H414        H  0.26569399  0.85536665  0.68361845     0.07900
H415        H  0.27573102  0.81792520  0.62509287     0.09100
Cu416      Cu  0.31844346  0.84755697  0.69210496     0.44200
Cu417      Cu  0.32840376  0.81828090  0.64054299     0.42000
Cu418      Cu  0.37053149  0.82166848  0.68268376     0.43900
N419        N  0.34217667  0.84348155  0.71654228    -0.34500
N420        N  0.36089156  0.83293190  0.71316689    -0.28800
C421        C  0.37109735  0.82953956  0.73256739    -0.04900
C422        C  0.35830151  0.83860146  0.74892128     0.07300
C423        C  0.34013553  0.84742298  0.73821889     0.01100
H424        H  0.38623611  0.82035855  0.73467700     0.08800
H425        H  0.32572262  0.85460184  0.74576430     0.07800
N426        N  0.37667361  0.81152704  0.65090459    -0.36000
N427        N  0.36135013  0.80982110  0.63539392    -0.28200
C428        C  0.37118705  0.80453965  0.61629961    -0.03400
C429        C  0.39372702  0.80289934  0.62007607     0.05200
C430        C  0.39656779  0.80759685  0.64213870     0.03300
H431        H  0.36279267  0.80367291  0.60055115     0.08400
H432        H  0.41208767  0.80926478  0.65090527     0.07200
N433        N  0.86258548  0.78936502  0.65559794    -0.27200
N434        N  0.84325901  0.78523094  0.64626923    -0.35000
C435        C  0.84132871  0.76361796  0.64300161     0.01200
C436        C  0.86020183  0.75362399  0.65099038     0.07200
C437        C  0.87331662  0.77039020  0.65892121    -0.05900
H438        H  0.82651017  0.75563954  0.63708325     0.07900
H439        H  0.88906844  0.76884303  0.66728954     0.09100
Cu440      Cu  0.81830404  0.80816005  0.64399030     0.44200
Cu441      Cu  0.87225835  0.82055869  0.66504733     0.42000
Cu442      Cu  0.82825055  0.85983313  0.67203849     0.43900
N443        N  0.79352532  0.82896951  0.65422976    -0.34500
N444        N  0.79693052  0.84701690  0.66572357    -0.28800
C445        C  0.77730919  0.85474559  0.67256737    -0.04900
C446        C  0.76089122  0.84099877  0.66479073     0.07300
C447        C  0.77175045  0.82492341  0.65317634     0.01100
H448        H  0.77517990  0.86918395  0.68258995     0.08800
H449        H  0.76447342  0.81071898  0.64544047     0.07800
N450        N  0.86164150  0.86771689  0.67527738    -0.36000
N451        N  0.87760899  0.85323561  0.67263417    -0.28200
C452        C  0.89720549  0.86328173  0.67488348    -0.03400
C453        C  0.89357878  0.88515670  0.67938512     0.05200
C454        C  0.87074495  0.88739732  0.67931145     0.03300
H455        H  0.91302573  0.85527169  0.67312821     0.08400
H456        H  0.86136643  0.90229695  0.68107236     0.07200
N457        N  0.63928083  0.80032365  0.86940306    -0.27200
N458        N  0.62920431  0.79574304  0.85057815    -0.35000
C459        C  0.62773633  0.77396344  0.84835794     0.01200
C460        C  0.63762898  0.76439007  0.86649115     0.07200
C461        C  0.64488554  0.78153524  0.87946115    -0.05900
H462        H  0.62069716  0.76571727  0.83421192     0.07900
H463        H  0.65341220  0.78044868  0.89512798     0.09100
Cu464      Cu  0.62012050  0.81912302  0.82758282     0.44200
Cu465      Cu  0.64403536  0.83196059  0.88080398     0.42000
Cu466      Cu  0.62978244  0.87510425  0.84243604     0.43900
N467        N  0.61932204  0.84459690  0.80519511    -0.34500
N468        N  0.62384359  0.86501627  0.81055233    -0.28800
C469        C  0.62667968  0.87669899  0.79209970    -0.04900
C470        C  0.62335543  0.86305328  0.77431610     0.07300
C471        C  0.61875428  0.84283787  0.78316240     0.01100
H472        H  0.63235804  0.89341255  0.79169735     0.08800
H473        H  0.61746064  0.82756521  0.77430117     0.07800
N474        N  0.63789322  0.88047752  0.87502906    -0.36000
N475        N  0.64353903  0.86488292  0.88898783    -0.28200
C476        C  0.64741395  0.87385867  0.90885273    -0.03400
C477        C  0.64419284  0.89616777  0.90720926     0.05200
C478        C  0.63797051  0.89973007  0.88559621     0.03300
H479        H  0.65128928  0.86466230  0.92354550     0.08400
H480        H  0.63357325  0.91517255  0.87814477     0.07200
N481        N  0.85838310  0.63990616  0.80976854    -0.27200
N482        N  0.83818330  0.63312822  0.80506865    -0.35000
C483        C  0.83621154  0.63061640  0.78312711     0.01200
C484        C  0.85601383  0.63645242  0.77363660     0.07200
C485        C  0.86963584  0.64239913  0.79095773    -0.05900
H486        H  0.82113250  0.62609051  0.77464411     0.07900
H487        H  0.88642320  0.64827888  0.78996118     0.09100
Cu488      Cu  0.81350107  0.63100196  0.82856041     0.44200
Cu489      Cu  0.86955734  0.64549691  0.84158336     0.42000
Cu490      Cu  0.82784541  0.64970205  0.88381480     0.43900
N491        N  0.79048379  0.63666312  0.85315346    -0.34500
N492        N  0.79542639  0.64487887  0.87273034    -0.28800
C493        C  0.77650445  0.64907604  0.88350719    -0.04900
C494        C  0.75892578  0.64276319  0.87024684     0.07300
C495        C  0.76840923  0.63494450  0.85119114     0.01100
H496        H  0.77560071  0.65624991  0.89974848     0.08800
H497        H  0.75985179  0.62944687  0.83651659     0.07800
N498        N  0.86179613  0.65079862  0.89026791    -0.36000
N499        N  0.87688604  0.64885054  0.87477856    -0.28200
C500        C  0.89709509  0.64990128  0.88404419    -0.03400
C501        C  0.89471105  0.65260517  0.90649131     0.05200
C502        C  0.87210760  0.65333449  0.90983168     0.03300
H503        H  0.91236480  0.64949998  0.87495803     0.08400
H504        H  0.86379122  0.65563471  0.92534728     0.07200
N505        N  0.86013492  0.63346330  0.71399330    -0.27200
N506        N  0.86993490  0.65234069  0.71793209    -0.35000
C507        C  0.87084875  0.65572274  0.73978430     0.01200
C508        C  0.86076842  0.63835358  0.75005687     0.07200
C509        C  0.85406157  0.62457347  0.73325880    -0.05900
H510        H  0.87693177  0.67046332  0.74751849     0.07900
H511        H  0.84508243  0.60943445  0.73488456     0.09100
Cu512      Cu  0.87673212  0.67492873  0.69358598     0.44200
Cu513      Cu  0.85479421  0.62144422  0.68239809     0.42000
Cu514      Cu  0.85207342  0.66297892  0.64046436     0.43900
N515        N  0.87070739  0.69831696  0.66968382    -0.34500
N516        N  0.85987413  0.69428231  0.65114719    -0.28800
C517        C  0.85506512  0.71334006  0.64122402    -0.04900
C518        C  0.86363675  0.73007319  0.65395505     0.07300
C519        C  0.87348785  0.71997930  0.67181619     0.01100
H520        H  0.84566918  0.71491289  0.62609777     0.08800
H521        H  0.88067263  0.72786066  0.68610246     0.07800
N522        N  0.85094907  0.62975727  0.63362511    -0.36000
N523        N  0.85247898  0.61454340  0.64895812    -0.28200
C524        C  0.85281355  0.59481203  0.63922340    -0.03400
C525        C  0.85153922  0.59774472  0.61666336     0.05200
C526        C  0.85011629  0.62009189  0.61373614     0.03300
H527        H  0.85363045  0.57949737  0.64798913     0.08400
H528        H  0.84906775  0.62870825  0.59824507     0.07200
N529        N  0.69873251  0.64239647  0.87181671    -0.27200
N530        N  0.70300570  0.66138192  0.88129471    -0.35000
C531        C  0.72501780  0.66378175  0.88336655     0.01200
C532        C  0.73514224  0.64564443  0.87438715     0.07200
C533        C  0.71800358  0.63246619  0.86712365    -0.05900
H534        H  0.73306606  0.67841744  0.88929546     0.07900
H535        H  0.71945507  0.61708799  0.85849419     0.09100
Cu536      Cu  0.67921162  0.68532969  0.88593471     0.44200
Cu537      Cu  0.66670585  0.63164379  0.86467413     0.42000
Cu538      Cu  0.62523595  0.67383526  0.86195517     0.43900
N539        N  0.65581357  0.70913421  0.87881398    -0.34500
N540        N  0.63688080  0.70507784  0.86861700    -0.28800
C541        C  0.62727521  0.72413337  0.86310856    -0.04900
C542        C  0.64063491  0.74092570  0.87048105     0.07300
C543        C  0.65852150  0.73086585  0.88044910     0.01100
H544        H  0.61188832  0.72563933  0.85407722     0.08800
H545        H  0.67309446  0.73872428  0.88710357     0.07800
N546        N  0.61787835  0.64083439  0.85875704    -0.36000
N547        N  0.63306302  0.62532668  0.86000535    -0.28200
C548        C  0.62311729  0.60578715  0.85790055    -0.03400
C549        C  0.60066486  0.60917523  0.85517676     0.05200
C550        C  0.59791353  0.63157653  0.85571183     0.03300
H551        H  0.63161352  0.59025028  0.85812785     0.08400
H552        H  0.58256140  0.64048130  0.85399866     0.07200
N553        N  0.70088540  0.83831759  0.66529797    -0.27200
N554        N  0.70451367  0.85044532  0.68298222    -0.35000
C555        C  0.72640476  0.85336405  0.68551143     0.01200
C556        C  0.73701168  0.84240123  0.66873308     0.07200
C557        C  0.72037020  0.83295470  0.65630672    -0.05900
H558        H  0.73401752  0.86257039  0.69872732     0.07900
H559        H  0.72223872  0.82332961  0.64150184     0.09100
Cu560      Cu  0.67966294  0.86173127  0.70343238     0.44200
Cu561      Cu  0.66971013  0.83097205  0.65293328     0.42000
Cu562      Cu  0.62417886  0.85186557  0.68419241     0.43900
N563        N  0.65189224  0.86628617  0.72270664    -0.34500
N564        N  0.63165369  0.86192012  0.71574317    -0.28800
C565        C  0.61791897  0.86197523  0.73298123    -0.04900
C566        C  0.62999236  0.86704947  0.75161527     0.07300
C567        C  0.65146599  0.86964937  0.74456213     0.01100
H568        H  0.60083055  0.85691331  0.73225998     0.08800
H569        H  0.66600698  0.87140197  0.75485992     0.07800
N570        N  0.62060374  0.83806227  0.65343065    -0.36000
N571        N  0.63713822  0.82972199  0.64211466    -0.28200
C572        C  0.62927515  0.82196142  0.62287384    -0.03400
C573        C  0.60669738  0.82554410  0.62219989     0.05200
C574        C  0.60183329  0.83594265  0.64174745     0.03300
H575        H  0.63939449  0.81505652  0.61004276     0.08400
H576        H  0.58581577  0.84162713  0.64706397     0.07200
N577        N  0.21061468  0.62778868  0.14958985    -0.27200
N578        N  0.21519263  0.61621660  0.16741379    -0.35000
C579        C  0.23724887  0.61430914  0.16952872     0.01200
C580        C  0.24698438  0.62560848  0.15251327     0.07200
C581        C  0.22965040  0.63397835  0.14021531    -0.05900
H582        H  0.24557953  0.60683735  0.18341544     0.07900
H583        H  0.23078204  0.64436326  0.12589956     0.09100
Cu584      Cu  0.19182547  0.60837673  0.19096554     0.44200
Cu585      Cu  0.17874637  0.63591587  0.13951798     0.42000
Cu586      Cu  0.13691787  0.63023269  0.18051097     0.43900
N587        N  0.16814293  0.61236534  0.21523539    -0.34500
N588        N  0.14870257  0.62162344  0.21160703    -0.28800
C589        C  0.13890626  0.62538769  0.23104766    -0.04900
C590        C  0.15264758  0.61782630  0.24765610     0.07300
C591        C  0.17099685  0.60959971  0.23705682     0.01100
H592        H  0.12320144  0.63357465  0.23297924     0.08800
H593        H  0.18597145  0.60351844  0.24470704     0.07800
N594        N  0.12989172  0.63836322  0.14793037    -0.36000
N595        N  0.14535776  0.64081350  0.13292528    -0.28200
C596        C  0.13573214  0.64591363  0.11355494    -0.03400
C597        C  0.11308251  0.64640819  0.11639721     0.05200
C598        C  0.10999833  0.64172265  0.13846935     0.03300
H599        H  0.14453369  0.64856142  0.09838121     0.08400
H600        H  0.09449000  0.64100902  0.14711324     0.07200
N601        N  0.14228543  0.77206026  0.37196263    -0.27200
N602        N  0.16036112  0.76805312  0.38359632    -0.35000
C603        C  0.16272368  0.74633898  0.38591948     0.01200
C604        C  0.14548538  0.73625065  0.37488652     0.07200
C605        C  0.13289149  0.75301859  0.36617533    -0.05900
H606        H  0.17686983  0.73847211  0.39347474     0.07900
H607        H  0.11834201  0.75148980  0.35585760     0.09100
Cu608      Cu  0.18354135  0.79195249  0.39059868     0.44200
Cu609      Cu  0.13207520  0.80329896  0.36368166     0.42000
Cu610      Cu  0.17334640  0.84550353  0.36666347     0.43900
N611        N  0.20800671  0.81447773  0.38378332    -0.34500
N612        N  0.20452213  0.83321378  0.37354582    -0.28800
C613        C  0.22405605  0.84157707  0.36742697    -0.04900
C614        C  0.24053982  0.82753999  0.37442632     0.07300
C615        C  0.22982579  0.81065033  0.38484034     0.01100
H616        H  0.22603310  0.85636911  0.35797020     0.08800
H617        H  0.23721265  0.79581015  0.39112691     0.07800
N618        N  0.14006988  0.85174207  0.36160758    -0.36000
N619        N  0.12501515  0.83621941  0.36024476    -0.28200
C620        C  0.10498247  0.84542974  0.35786166    -0.03400
C621        C  0.10755714  0.86785197  0.35751731     0.05200
C622        C  0.13000547  0.87126169  0.36016317     0.03300
H623        H  0.08967137  0.83642034  0.35751626     0.08400
H624        H  0.13836593  0.88680763  0.36128061     0.07200
N625        N  0.37528623  0.78314579  0.14785059    -0.27200
N626        N  0.38419260  0.77802925  0.16708543    -0.35000
C627        C  0.38581626  0.75619137  0.16854609     0.01200
C628        C  0.37714769  0.74721411  0.14948716     0.07200
C629        C  0.37053142  0.76472352  0.13676975    -0.05900
H630        H  0.39077899  0.74747915  0.18324404     0.07900
H631        H  0.36181372  0.76410957  0.12117890     0.09100
Cu632      Cu  0.38750883  0.80030788  0.19263387     0.44200
Cu633      Cu  0.36748036  0.81474542  0.13885096     0.42000
Cu634      Cu  0.36014870  0.85260914  0.18364008     0.43900
N635        N  0.37852812  0.82143590  0.21776286    -0.34500
N636        N  0.36705959  0.83958379  0.21463437    -0.28800
C637        C  0.36040789  0.84720919  0.23429981    -0.04900
C638        C  0.36835875  0.83338536  0.25051826     0.07300
C639        C  0.37985574  0.81731399  0.23946501     0.01100
H640        H  0.35010103  0.86145485  0.23657705     0.08800
H641        H  0.38723128  0.80281962  0.24654130     0.07800
N642        N  0.35753081  0.86147592  0.15059931    -0.36000
N643        N  0.36067139  0.84749049  0.13433695    -0.28200
C644        C  0.35955600  0.85814694  0.11507355    -0.03400
C645        C  0.35522763  0.87987623  0.11928853     0.05200
C646        C  0.35414347  0.88147568  0.14201188     0.03300
H647        H  0.36209877  0.85068250  0.09915104     0.08400
H648        H  0.35206969  0.89618524  0.15162689     0.07200
N649        N  0.30700869  0.62798563  0.15190741    -0.27200
N650        N  0.30209245  0.64793571  0.14517509    -0.35000
C651        C  0.27998955  0.64990316  0.14365800     0.01200
C652        C  0.27061932  0.63037185  0.15004684     0.07200
C653        C  0.28819469  0.61689463  0.15528419    -0.05900
H654        H  0.27136948  0.66472716  0.13913896     0.07900
H655        H  0.28738554  0.60024563  0.16109283     0.09100
Cu656      Cu  0.32566579  0.67217780  0.14064388     0.44200
Cu657      Cu  0.33907218  0.61650195  0.15554368     0.42000
Cu658      Cu  0.38252226  0.65626493  0.15160436     0.43900
N659        N  0.35191531  0.69401951  0.14236579    -0.34500
N660        N  0.37232273  0.68826731  0.14771239    -0.28800
C661        C  0.38465987  0.70630873  0.15035568    -0.04900
C662        C  0.37151447  0.72421960  0.14599619     0.07300
C663        C  0.35088345  0.71590387  0.14096463     0.01100
H664        H  0.40179878  0.70637638  0.15549659     0.08800
H665        H  0.33591824  0.72511900  0.13792981     0.07800
N666        N  0.38822147  0.62298471  0.15271339    -0.36000
N667        N  0.37231442  0.60839126  0.15451197    -0.28200
C668        C  0.38121162  0.58828623  0.15371181    -0.03400
C669        C  0.40380639  0.59036087  0.15134694     0.05200
C670        C  0.40764490  0.61257354  0.15057176     0.03300
H671        H  0.37178716  0.57332721  0.15377446     0.08400
H672        H  0.42334780  0.62056809  0.14819031     0.07200
N673        N  0.36437511  0.82698259  0.30988399    -0.27200
N674        N  0.34494994  0.83592101  0.30545075    -0.35000
C675        C  0.34381765  0.84052245  0.28381533     0.01200
C676        C  0.36330545  0.83384313  0.27416119     0.07200
C677        C  0.37591363  0.82526235  0.29113357    -0.05900
H678        H  0.32937571  0.84701051  0.27551414     0.07900
H679        H  0.39210330  0.81790037  0.28988388     0.09100
Cu680      Cu  0.31960820  0.83818679  0.32828884     0.44200
Cu681      Cu  0.37406157  0.81671271  0.34105419     0.42000
Cu682      Cu  0.33088204  0.81150064  0.38064701     0.43900
N683        N  0.29587494  0.83267353  0.35222734    -0.34500
N684        N  0.29996660  0.82186536  0.37063528    -0.28800
C685        C  0.28100467  0.81890099  0.38149595    -0.04900
C686        C  0.26419016  0.82855610  0.36955891     0.07300
C687        C  0.27412671  0.83719677  0.35110857     0.01100
H688        H  0.27956081  0.81014571  0.39685424     0.08800
H689        H  0.26601720  0.84517273  0.33738246     0.07800
N690        N  0.36367667  0.80577214  0.38810714    -0.36000
N691        N  0.37965076  0.80806630  0.37363657    -0.28200
C692        C  0.39917967  0.80543026  0.38394764    -0.03400
C693        C  0.39528387  0.80100817  0.40590088     0.05200
C694        C  0.37256927  0.80152838  0.40798370     0.03300
H695        H  0.41507583  0.80741466  0.37622778     0.08400
H696        H  0.36322690  0.80043544  0.42302202     0.07200
N697        N  0.15232043  0.61676996  0.30769914    -0.27200
N698        N  0.14227346  0.63558233  0.30379515    -0.35000
C699        C  0.14019860  0.63836374  0.28192785     0.01200
C700        C  0.14970613  0.62067714  0.27151826     0.07200
C701        C  0.15733000  0.60734066  0.28831287    -0.05900
H702        H  0.13337154  0.65277957  0.27417754     0.07900
H703        H  0.16600620  0.59200010  0.28657239     0.09100
Cu704      Cu  0.13525056  0.65859008  0.32785563     0.44200
Cu705      Cu  0.15889912  0.60494789  0.33933150     0.42000
Cu706      Cu  0.15323172  0.64528682  0.38255985     0.43900
N707        N  0.13829585  0.68158765  0.35277536    -0.34500
N708        N  0.14632651  0.67692126  0.37249822    -0.28800
C709        C  0.14966006  0.69561765  0.38368139    -0.04900
C710        C  0.14302732  0.71279868  0.37045832     0.07300
C711        C  0.13584790  0.70333137  0.35103171     0.01100
H712        H  0.15678252  0.69664127  0.40002717     0.08800
H713        H  0.13061134  0.71170115  0.33622327     0.07800
N714        N  0.15918858  0.61245170  0.38846905    -0.36000
N715        N  0.16181228  0.59765841  0.37283315    -0.28200
C716        C  0.16542207  0.57808845  0.38233675    -0.03400
C717        C  0.16502039  0.58077328  0.40500442     0.05200
C718        C  0.16082244  0.60271300  0.40822090     0.03300
H719        H  0.16743939  0.56295121  0.37340637     0.08400
H720        H  0.15902569  0.61100217  0.42383134     0.07200
N721        N  0.63585815  0.79551895  0.14564514    -0.27200
N722        N  0.62682144  0.78871327  0.16414795    -0.35000
C723        C  0.62684008  0.76675600  0.16438445     0.01200
C724        C  0.63667917  0.75938431  0.14532589     0.07200
C725        C  0.64234503  0.77801943  0.13388479    -0.05900
H726        H  0.62169025  0.75692498  0.17817993     0.07900
H727        H  0.65104300  0.77881184  0.11843543     0.09100
Cu728      Cu  0.61961636  0.80926768  0.19038978     0.44200
Cu729      Cu  0.63953574  0.82841520  0.13769090     0.42000
Cu730      Cu  0.63096602  0.86653947  0.18225553     0.43900
N731        N  0.62348683  0.83142703  0.21607171    -0.34500
N732        N  0.62917175  0.85204031  0.21316983    -0.28800
C733        C  0.63418886  0.86093139  0.23287902    -0.04900
C734        C  0.63107050  0.84526947  0.24891638     0.07300
C735        C  0.62419399  0.82682696  0.23770482     0.01100
H736        H  0.63999822  0.87744198  0.23530869     0.08800
H737        H  0.62130270  0.81084859  0.24462866     0.07800
N738        N  0.63393554  0.87602259  0.14951153    -0.36000
N739        N  0.63802511  0.86215729  0.13333968    -0.28200
C740        C  0.63999443  0.87339034  0.11442660    -0.03400
C741        C  0.63661040  0.89530828  0.11883157     0.05200
C742        C  0.63288999  0.89638364  0.14125191     0.03300
H743        H  0.64337552  0.86612394  0.09857447     0.08400
H744        H  0.63015255  0.91093917  0.15094459     0.07200
N745        N  0.85662993  0.78561385  0.36444514    -0.27200
N746        N  0.83890970  0.78155012  0.37629885    -0.35000
C747        C  0.83747129  0.75990921  0.37964555     0.01200
C748        C  0.85502551  0.74995463  0.36921076     0.07200
C749        C  0.86679967  0.76670208  0.35970965    -0.05900
H750        H  0.82404006  0.75195360  0.38805215     0.07900
H751        H  0.88153670  0.76526120  0.34987369     0.09100
Cu752      Cu  0.81573052  0.80521770  0.38413837     0.44200
Cu753      Cu  0.86625967  0.81661838  0.35531436     0.42000
Cu754      Cu  0.82574476  0.85902716  0.36166910     0.43900
N755        N  0.79147401  0.82884075  0.38017021    -0.34500
N756        N  0.79481101  0.84779465  0.37039475    -0.28800
C757        C  0.77517573  0.85715732  0.36594019    -0.04900
C758        C  0.75876647  0.84355266  0.37353302     0.07300
C759        C  0.76966034  0.82586077  0.38261333     0.01100
H760        H  0.77300547  0.87223709  0.35695318     0.08800
H761        H  0.76224438  0.81100356  0.38862858     0.07800
N762        N  0.85882636  0.86507720  0.35596499    -0.36000
N763        N  0.87360393  0.84945019  0.35314026    -0.28200
C764        C  0.89372168  0.85844914  0.35137197    -0.03400
C765        C  0.89150173  0.88077264  0.35351232     0.05200
C766        C  0.86916019  0.88446260  0.35621573     0.03300
H767        H  0.90895126  0.84934863  0.34981210     0.08400
H768        H  0.86105300  0.89999920  0.35869097     0.07200
N769        N  0.86540615  0.64118787  0.21253977    -0.27200
N770        N  0.84770577  0.62895932  0.21539502    -0.35000
C771        C  0.84611385  0.62396859  0.23685664     0.01200
C772        C  0.86349959  0.63375763  0.24792262     0.07200
C773        C  0.87535841  0.64457053  0.23205350    -0.05900
H774        H  0.83253750  0.61511186  0.24403770     0.07900
H775        H  0.88989011  0.65453526  0.23452441     0.09100
Cu776      Cu  0.82435889  0.62316985  0.19088513     0.44200
Cu777      Cu  0.87541541  0.65294172  0.18253691     0.42000
Cu778      Cu  0.83580214  0.64893198  0.13878691     0.43900
N779        N  0.80038271  0.62931381  0.16707630    -0.34500
N780        N  0.80443745  0.64014372  0.14875509    -0.28800
C781        C  0.78517180  0.64582389  0.13922027    -0.04900
C782        C  0.76820718  0.63790056  0.15195718     0.07300
C783        C  0.77839356  0.62738275  0.16940348     0.01100
H784        H  0.78363747  0.65581527  0.12463286     0.08800
H785        H  0.77043383  0.62065385  0.18373468     0.07800
N786        N  0.86872862  0.65628432  0.13383414    -0.36000
N787        N  0.88328315  0.65788953  0.15005773    -0.28200
C788        C  0.90344102  0.66115284  0.14163807    -0.03400
C789        C  0.90137562  0.66166884  0.11902766     0.05200
C790        C  0.87920087  0.65865777  0.11458866     0.03300
H791        H  0.91850335  0.66239776  0.15123344     0.08400
H792        H  0.87141030  0.65741561  0.09856164     0.07200
N793        N  0.70820237  0.64069577  0.15023517    -0.27200
N794        N  0.71325511  0.66072292  0.14395353    -0.35000
C795        C  0.73536090  0.66259703  0.14319072     0.01200
C796        C  0.74459824  0.64295143  0.14960841     0.07200
C797        C  0.72696172  0.62947800  0.15411108    -0.05900
H798        H  0.74406351  0.67735533  0.13887080     0.07900
H799        H  0.72768839  0.61264708  0.15939789     0.09100
Cu800      Cu  0.69002036  0.68517602  0.13815493     0.44200
Cu801      Cu  0.67612436  0.62889870  0.15158813     0.42000
Cu802      Cu  0.63302266  0.66811823  0.14008399     0.43900
N803        N  0.66354501  0.70690199  0.13740066    -0.34500
N804        N  0.64273866  0.70065182  0.13905978    -0.28800
C805        C  0.62985127  0.71844096  0.14122276    -0.04900
C806        C  0.64311422  0.73674724  0.14042013     0.07300
C807        C  0.66436820  0.72885490  0.13799636     0.01100
H808        H  0.61223138  0.71804549  0.14394444     0.08800
H809        H  0.67943680  0.73829596  0.13821020     0.07800
N810        N  0.62747814  0.63470627  0.14250922    -0.36000
N811        N  0.64318318  0.62041833  0.14721463    -0.28200
C812        C  0.63435178  0.60029813  0.14762298    -0.03400
C813        C  0.61204480  0.60189960  0.14266837     0.05200
C814        C  0.60824908  0.62403565  0.13976557     0.03300
H815        H  0.64357723  0.58550358  0.15087060     0.08400
H816        H  0.59263886  0.63196569  0.13643061     0.07200
N817        N  0.86235390  0.63016633  0.30739164    -0.27200
N818        N  0.87313599  0.64869359  0.30482562    -0.35000
C819        C  0.87639039  0.65206912  0.28326842     0.01200
C820        C  0.86689399  0.63499774  0.27177193     0.07200
C821        C  0.85816610  0.62138486  0.28752861    -0.05900
H822        H  0.88335527  0.66678390  0.27642315     0.07900
H823        H  0.84859081  0.60674642  0.28475545     0.09100
Cu824      Cu  0.87746206  0.67122004  0.32981215     0.44200
Cu825      Cu  0.85195346  0.61893545  0.33756176     0.42000
Cu826      Cu  0.84871611  0.65937044  0.38051967     0.43900
N827        N  0.86871509  0.69468994  0.35261475    -0.34500
N828        N  0.85689673  0.69063908  0.37033898    -0.28800
C829        C  0.85067863  0.70970695  0.37940633    -0.04900
C830        C  0.85917865  0.72646193  0.36686360     0.07300
C831        C  0.87059515  0.71637443  0.35009959     0.01100
H832        H  0.84026741  0.71123499  0.39370332     0.08800
H833        H  0.87840446  0.72418127  0.33624820     0.07800
N834        N  0.84444915  0.62618535  0.38588708    -0.36000
N835        N  0.84556154  0.61149331  0.36999584    -0.28200
C836        C  0.84387684  0.59145828  0.37871026    -0.03400
C837        C  0.84186156  0.59357740  0.40124122     0.05200
C838        C  0.84200679  0.61582384  0.40521470     0.03300
H839        H  0.84451588  0.57650088  0.36929567     0.08400
H840        H  0.84144756  0.62382337  0.42107810     0.07200
N841        N  0.69922952  0.83836280  0.37021774    -0.27200
N842        N  0.70289109  0.84967375  0.35210185    -0.35000
C843        C  0.72457142  0.85436320  0.35113324     0.01200
C844        C  0.73493265  0.84527877  0.36932971     0.07200
C845        C  0.71840362  0.83522249  0.38100935    -0.05900
H846        H  0.73241595  0.86245288  0.33747173     0.07900
H847        H  0.72022667  0.82582826  0.39596954     0.09100
Cu848      Cu  0.67889621  0.85483495  0.32780309     0.44200
Cu849      Cu  0.66865021  0.82714350  0.37956939     0.42000
Cu850      Cu  0.62532452  0.83089568  0.33957973     0.43900
N851        N  0.65383075  0.85093712  0.30432641    -0.34500
N852        N  0.63499985  0.84090400  0.30848606    -0.28800
C853        C  0.62383386  0.83793772  0.28950483    -0.04900
C854        C  0.63592551  0.84691790  0.27263187     0.07300
C855        C  0.65482933  0.85508826  0.28257710     0.01100
H856        H  0.60822985  0.82948828  0.28804543     0.08800
H857        H  0.66889783  0.86218320  0.27442203     0.07800
N858        N  0.61986645  0.82284166  0.37225470    -0.36000
N859        N  0.63606493  0.82100587  0.38681094    -0.28200
C860        C  0.62757531  0.81641091  0.40660631    -0.03400
C861        C  0.60489685  0.81516941  0.40441353     0.05200
C862        C  0.60052625  0.81958268  0.38247162     0.03300
H863        H  0.63716240  0.81510543  0.42163184     0.08400
H864        H  0.58447708  0.82067395  0.37461359     0.07200
N865        N  0.81790693  0.36727538  0.16272577    -0.27200
N866        N  0.81637518  0.35712841  0.18181054    -0.35000
C867        C  0.79532655  0.35153573  0.18523184     0.01200
C868        C  0.78281780  0.35873157  0.16763975     0.07200
C869        C  0.79757469  0.36873796  0.15359857    -0.05900
H870        H  0.78953824  0.34299362  0.19963049     0.07900
H871        H  0.79396299  0.37579443  0.13766941     0.09100
Cu872      Cu  0.84228734  0.35224687  0.20336955     0.44200
Cu873      Cu  0.84830812  0.37636321  0.15004521     0.42000
Cu874      Cu  0.89498628  0.37325194  0.18952181     0.43900
N875        N  0.86811510  0.35361358  0.22555298    -0.34500
N876        N  0.88750149  0.36224636  0.22096380    -0.28800
C877        C  0.90039265  0.36141346  0.23912437    -0.04900
C878        C  0.88842512  0.35165615  0.25570096     0.07300
C879        C  0.86809316  0.34692623  0.24657054     0.01100
H880        H  0.91726320  0.36710324  0.24006488     0.08800
H881        H  0.85424158  0.33932103  0.25463156     0.07800
N882        N  0.89810787  0.37812716  0.15577831    -0.36000
N883        N  0.88144030  0.37871481  0.14154947    -0.28200
C884        C  0.88956022  0.37885238  0.12099166    -0.03400
C885        C  0.91234725  0.37874130  0.12235650     0.05200
C886        C  0.91718440  0.37818562  0.14460393     0.03300
H887        H  0.87961504  0.37807965  0.10615160     0.08400
H888        H  0.93335925  0.37643933  0.15207402     0.07200
N889        N  0.87429391  0.18977378  0.36874666    -0.27200
N890        N  0.85519621  0.19543512  0.37749026    -0.35000
C891        C  0.85479975  0.21720097  0.38031076     0.01200
C892        C  0.87443560  0.22561627  0.37265546     0.07200
C893        C  0.88637258  0.20782532  0.36535222    -0.05900
H894        H  0.84080218  0.22631480  0.38639819     0.07900
H895        H  0.90253149  0.20799294  0.35790506     0.09100
Cu896      Cu  0.82958744  0.17367603  0.38278575     0.44200
Cu897      Cu  0.88314959  0.15777915  0.36205069     0.42000
Cu898      Cu  0.84220804  0.11672017  0.37472495     0.43900
N899        N  0.80606426  0.14912892  0.38383662    -0.34500
N900        N  0.81077281  0.12820599  0.38137457    -0.19200
C901        C  0.79186029  0.11675697  0.38075307    -0.04900
C902        C  0.77443679  0.13114249  0.38299142     0.07300
C903        C  0.78401157  0.15154136  0.38456350     0.01100
H904        H  0.79079546  0.09954227  0.37694659     0.08800
H905        H  0.77553921  0.16709619  0.38462528     0.07800
N906        N  0.87430196  0.10959296  0.36558676    -0.36000
N907        N  0.88910983  0.12451143  0.36043393    -0.28200
C908        C  0.90835145  0.11454697  0.35588102    -0.03400
C909        C  0.90544347  0.09230341  0.35822699     0.05200
C910        C  0.88373974  0.08976779  0.36455032     0.03300
H911        H  0.92355378  0.12296528  0.35222855     0.08400
H912        H  0.87553845  0.07464270  0.36855382     0.07200
N913        N  0.65389920  0.20112546  0.15995261    -0.27200
N914        N  0.66479585  0.20140317  0.17884482    -0.35000
C915        C  0.67147791  0.22184428  0.18318634     0.01200
C916        C  0.66410620  0.23513674  0.16633376     0.07200
C917        C  0.65303374  0.22151959  0.15183927    -0.05900
H918        H  0.68002177  0.22682546  0.19805910     0.07900
H919        H  0.64482110  0.22609331  0.13666410     0.09100
Cu920      Cu  0.66611950  0.17486391  0.19951560     0.44200
Cu921      Cu  0.64072987  0.17264132  0.14706541     0.42000
Cu922      Cu  0.63257621  0.12781650  0.18602206     0.43900
N923        N  0.65739999  0.15116437  0.22176260    -0.34500
N924        N  0.64391094  0.13469437  0.21767895    -0.28800
C925        C  0.64120329  0.12320824  0.23638866    -0.04900
C926        C  0.65387644  0.13293082  0.25272806     0.07300
C927        C  0.66384765  0.15051683  0.24285827     0.01100
H928        H  0.63171496  0.10834391  0.23768820     0.08800
H929        H  0.67512384  0.16201218  0.25042391     0.07800
N930        N  0.63009098  0.12465923  0.15197251    -0.36000
N931        N  0.63318063  0.14088487  0.13800675    -0.28200
C932        C  0.63317923  0.13293499  0.11738384    -0.03400
C933        C  0.63018112  0.11060568  0.11835799     0.05200
C934        C  0.62801046  0.10595986  0.14050983     0.03300
H935        H  0.63584854  0.14268924  0.10285661     0.08400
H936        H  0.62643700  0.08996986  0.14782938     0.07200
N937        N  0.72370332  0.35756781  0.15565934    -0.27200
N938        N  0.72623937  0.33990349  0.16785857    -0.35000
C939        C  0.74749313  0.33784864  0.17372958     0.01200
C940        C  0.75908441  0.35487326  0.16464128     0.07200
C941        C  0.74357608  0.36713198  0.15318260    -0.05900
H942        H  0.75410568  0.32456048  0.18346507     0.07900
H943        H  0.74642562  0.38201897  0.14411805     0.09100
Cu944      Cu  0.70184094  0.31742611  0.17377150     0.44200
Cu945      Cu  0.69278437  0.36724215  0.14405468     0.42000
Cu946      Cu  0.65190913  0.32316153  0.14294437     0.43900
N947        N  0.68028440  0.29201964  0.16860245    -0.34500
N948        N  0.66260753  0.29356264  0.15583119    -0.28800
C949        C  0.65391504  0.27353952  0.15309287    -0.04900
C950        C  0.66673646  0.25886995  0.16488388     0.07300
C951        C  0.68321122  0.27114126  0.17460244     0.01100
H952        H  0.63944860  0.26993638  0.14320457     0.08800
H953        H  0.69693559  0.26521235  0.18441705     0.07800
N954        N  0.64468548  0.35567807  0.13628556    -0.36000
N955        N  0.65930206  0.37168375  0.13730068    -0.28200
C956        C  0.64865785  0.39085384  0.13502284    -0.03400
C957        C  0.62640210  0.38670222  0.13206802     0.05200
C958        C  0.62445494  0.36426702  0.13305308     0.03300
H959        H  0.65642190  0.40668664  0.13628687     0.08400
H960        H  0.60930123  0.35496291  0.13286031     0.07200
N961        N  0.71677907  0.11539512  0.37709441    -0.27200
N962        N  0.72089962  0.12352022  0.35744292    -0.35000
C963        C  0.74181740  0.13060932  0.35682538     0.01200
C964        C  0.75142445  0.12668051  0.37703902     0.07200
C965        C  0.73522647  0.11691244  0.38956585    -0.05900
H966        H  0.74956155  0.13773516  0.34256876     0.07900
H967        H  0.73669223  0.11143874  0.40642238     0.09100
Cu968      Cu  0.69832123  0.12382884  0.33206416     0.44200
Cu969      Cu  0.68561941  0.10366967  0.38515015     0.42000
Cu970      Cu  0.64395783  0.10296090  0.33976457     0.43900
N971        N  0.67515870  0.12195312  0.30729105    -0.34500
N972        N  0.65521610  0.11358972  0.30940666    -0.28800
C973        C  0.64443080  0.11529899  0.28996084    -0.04900
C974        C  0.65836831  0.12550126  0.27523930     0.07300
C975        C  0.67759545  0.12945518  0.28680329     0.01100
H976        H  0.62747120  0.11050908  0.28710251     0.08800
H977        H  0.69224543  0.13753923  0.28087863     0.07800
N978        N  0.63720925  0.09741920  0.37279805    -0.36000
N979        N  0.65208054  0.09718374  0.38890187    -0.28200
C980        C  0.64161016  0.09485241  0.40819648    -0.03400
C981        C  0.61916413  0.09361834  0.40408111     0.05200
C982        C  0.61696612  0.09551373  0.38152348     0.03300
H983        H  0.64962543  0.09559153  0.42414602     0.08400
H984        H  0.60169755  0.09647720  0.37222027     0.07200
N985        N  0.89585830  0.34873783  0.31458652    -0.27200
N986        N  0.89892858  0.32807439  0.30916603    -0.35000
C987        C  0.89852284  0.32627853  0.28711599     0.01200
C988        C  0.89550429  0.34683273  0.27826660     0.07200
C989        C  0.89366113  0.36065520  0.29613107    -0.05900
H990        H  0.89862693  0.31096492  0.27824289     0.07900
H991        H  0.88897647  0.37769290  0.29577435     0.09100
Cu992      Cu  0.89883071  0.30285297  0.33184919     0.44200
Cu993      Cu  0.88954931  0.35883405  0.34643480     0.42000
Cu994      Cu  0.87290331  0.31635720  0.38398435     0.43900
N995        N  0.89019528  0.27992338  0.35524631    -0.34500
N996        N  0.87932272  0.28469194  0.37342841    -0.28800
C997        C  0.87275428  0.26601861  0.38293562    -0.04900
C998        C  0.88015320  0.24875088  0.37030730     0.07300
C999        C  0.89126469  0.25812250  0.35298342     0.01100
H1000       H  0.86275568  0.26511229  0.39756980     0.08800
H1001       H  0.89806532  0.24978910  0.33886451     0.07800
N1002       N  0.87073036  0.34948143  0.39119750    -0.36000
N1003       N  0.87753743  0.36486560  0.37764680    -0.28200
C1004       C  0.87472428  0.38444888  0.38718757    -0.03400
C1005       C  0.86543095  0.38134277  0.40763078     0.05200
C1006       C  0.86329066  0.35893810  0.40973648     0.03300
H1007       H  0.87905506  0.39985940  0.37974467     0.08400
H1008       H  0.85748002  0.35009229  0.42392340     0.07200
N1009       N  0.15544541  0.34669366  0.22294313    -0.27200
N1010       N  0.17632196  0.34949461  0.22886955    -0.35000
C1011       C  0.17825502  0.34696300  0.25072379     0.01200
C1012       C  0.15778509  0.34184148  0.25898496     0.07200
C1013       C  0.14363941  0.34170175  0.24098018    -0.05900
H1014       H  0.19366812  0.34778732  0.25980203     0.07900
H1015       H  0.12611346  0.33836049  0.24099496     0.09100
Cu1016     Cu  0.20231647  0.35320659  0.20731222     0.44200
Cu1017     Cu  0.14430577  0.35018846  0.19050764     0.42000
Cu1018     Cu  0.18837511  0.35393321  0.15029229     0.43900
N1019       N  0.22571614  0.35022138  0.18284233    -0.34500
N1020       N  0.22045252  0.34992624  0.16170649    -0.28800
C1021       C  0.23872448  0.34590696  0.14992554    -0.04900
C1022       C  0.25627986  0.34376852  0.16438760     0.07300
C1023       C  0.24752342  0.34653983  0.18511605     0.01100
H1024       H  0.23912353  0.34433358  0.13220611     0.08800
H1025       H  0.25619306  0.34528081  0.20069298     0.07800
N1026       N  0.15512102  0.35672700  0.14244676    -0.36000
N1027       N  0.13895762  0.35543727  0.15690276    -0.28200
C1028       C  0.11950125  0.35709918  0.14609915    -0.03400
C1029       C  0.12371311  0.35935006  0.12385765     0.05200
C1030       C  0.14642758  0.35908195  0.12216612     0.03300
H1031       H  0.10348573  0.35592027  0.15374393     0.08400
H1032       H  0.15595438  0.35996731  0.10722085     0.07200
N1033       N  0.37994574  0.18445932  0.15303834    -0.27200
N1034       N  0.38459426  0.18907431  0.17383407    -0.35000
C1035       C  0.38641022  0.21087708  0.17597017     0.01200
C1036       C  0.38287489  0.22027190  0.15555324     0.07200
C1037       C  0.37857587  0.20308950  0.14152142    -0.05900
H1038       H  0.38821511  0.21933897  0.19151184     0.07900
H1039       H  0.37315412  0.20414405  0.12455443     0.09100
Cu1040     Cu  0.38399715  0.16601529  0.19900211     0.44200
Cu1041     Cu  0.37172436  0.15385315  0.14130580     0.42000
Cu1042     Cu  0.35999906  0.11441883  0.18222436     0.43900
N1043       N  0.37682504  0.14065777  0.22057394    -0.34500
N1044       N  0.36695256  0.12245437  0.21425282    -0.28800
C1045       C  0.36224596  0.11032560  0.23193595    -0.04900
C1046       C  0.36983518  0.12120578  0.25028381     0.07300
C1047       C  0.37907663  0.14034549  0.24261776     0.01100
H1048       H  0.35371918  0.09484017  0.23143656     0.08800
H1049       H  0.38584652  0.15353230  0.25238963     0.07800
N1050       N  0.35647612  0.10822742  0.14925994    -0.36000
N1051       N  0.36101393  0.12269638  0.13391936    -0.28200
C1052       C  0.35842399  0.11331220  0.11408683    -0.03400
C1053       C  0.35175781  0.09195564  0.11721517     0.05200
C1054       C  0.35095475  0.08923860  0.13974168     0.03300
H1055       H  0.36176222  0.12122961  0.09857718     0.08400
H1056       H  0.34797284  0.07431285  0.14866266     0.07200
N1057       N  0.14728480  0.17785850  0.36987196    -0.27200
N1058       N  0.16683884  0.18183934  0.37887551    -0.35000
C1059       C  0.16861156  0.20337200  0.38272631     0.01200
C1060       C  0.14947660  0.21343618  0.37545843     0.07200
C1061       C  0.13633643  0.19683484  0.36733490    -0.05900
H1062       H  0.18337674  0.21129519  0.38885185     0.07900
H1063       H  0.12029946  0.19847823  0.35954799     0.09100
Cu1064     Cu  0.19211228  0.15895481  0.38174777     0.44200
Cu1065     Cu  0.13663969  0.14708374  0.36024538     0.42000
Cu1066     Cu  0.17942664  0.10626524  0.35965428     0.43900
N1067       N  0.21588873  0.13503243  0.37638090    -0.34500
N1068       N  0.21112419  0.11607406  0.36713947    -0.28800
C1069       C  0.22991940  0.10521823  0.36297923    -0.04900
C1070       C  0.24736493  0.11778218  0.37028709     0.07300
C1071       C  0.23795202  0.13656335  0.37876469     0.01100
H1072       H  0.23081535  0.08955132  0.35480957     0.08800
H1073       H  0.24653858  0.15080194  0.38492520     0.07800
N1074       N  0.14663348  0.09949743  0.35361506    -0.36000
N1075       N  0.13083618  0.11439858  0.35336235    -0.28200
C1076       C  0.11133436  0.10443698  0.34991861    -0.03400
C1077       C  0.11519041  0.08225870  0.34792897     0.05200
C1078       C  0.13767754  0.07970364  0.35057258     0.03300
H1079       H  0.09546977  0.11256601  0.35012174     0.08400
H1080       H  0.14678157  0.06450631  0.35100846     0.07200
N1081       N  0.36987735  0.11300499  0.30917268    -0.27200
N1082       N  0.35023109  0.10510422  0.30396464    -0.35000
C1083       C  0.34774250  0.10568943  0.28197939     0.01200
C1084       C  0.36655788  0.11478975  0.27316401     0.07200
C1085       C  0.38022999  0.11925852  0.29079635    -0.05900
H1086       H  0.33269429  0.10152324  0.27325025     0.07900
H1087       H  0.39615470  0.12719621  0.29041462     0.09100
Cu1088     Cu  0.32590608  0.09920910  0.32704596     0.44200
Cu1089     Cu  0.38099492  0.11702565  0.34090459     0.42000
Cu1090     Cu  0.33909336  0.11861288  0.38215324     0.43900
N1091       N  0.30251728  0.10508109  0.35113000    -0.34500
N1092       N  0.30721716  0.11376426  0.37054476    -0.28800
C1093       C  0.28829194  0.11920020  0.38062848    -0.04900
C1094       C  0.27091101  0.11329773  0.36706237     0.07300
C1095       C  0.28046508  0.10429674  0.34857663     0.01100
H1096       H  0.28729346  0.12720372  0.39646477     0.08800
H1097       H  0.27206235  0.09899342  0.33373959     0.07800
N1098       N  0.37254613  0.12061088  0.38922453    -0.36000
N1099       N  0.38786259  0.12004445  0.37390077    -0.28200
C1100       C  0.40788732  0.12060854  0.38346413    -0.03400
C1101       C  0.40507022  0.12182320  0.40595506     0.05200
C1102       C  0.38246083  0.12151383  0.40906373     0.03300
H1103       H  0.42325267  0.11910124  0.37466775     0.08400
H1104       H  0.37388103  0.12148630  0.42460238     0.07200
N1105       N  0.15724480  0.33573365  0.31815313    -0.27200
N1106       N  0.14516930  0.31865331  0.31248174    -0.35000
C1107       C  0.14208352  0.31892735  0.29047118     0.01200
C1108       C  0.15300095  0.33690054  0.28208987     0.07200
C1109       C  0.16248915  0.34704127  0.30006990    -0.05900
H1110       H  0.13408515  0.30611124  0.28112905     0.07900
H1111       H  0.17310997  0.36120744  0.29995307     0.09100
Cu1112     Cu  0.13766373  0.29392756  0.33476680     0.44200
Cu1113     Cu  0.16716104  0.34288116  0.34988050     0.42000
Cu1114     Cu  0.16096792  0.30227905  0.39051911     0.43900
N1115       N  0.14090001  0.26960490  0.35858523    -0.34500
N1116       N  0.15060930  0.27249943  0.37796946    -0.28800
C1117       C  0.15400258  0.25296866  0.38743457    -0.04900
C1118       C  0.14575105  0.23703861  0.37359481     0.07300
C1119       C  0.13744444  0.24811074  0.35551814     0.01100
H1120       H  0.16278199  0.25049800  0.40280144     0.08800
H1121       H  0.13127552  0.24095241  0.34040135     0.07800
N1122       N  0.16932027  0.33416933  0.39825052    -0.36000
N1123       N  0.17189559  0.34912240  0.38290202    -0.28200
C1124       C  0.17568534  0.36851145  0.39248509    -0.03400
C1125       C  0.17522341  0.36574777  0.41503152     0.05200
C1126       C  0.17138478  0.34366383  0.41814041     0.03300
H1127       H  0.17753627  0.38371824  0.38369061     0.08400
H1128       H  0.16990925  0.33511309  0.43358410     0.07200
N1129       N  0.31493381  0.34048959  0.15295953    -0.27200
N1130       N  0.30927877  0.31978659  0.15073244    -0.35000
C1131       C  0.28746987  0.31779807  0.15420310     0.01200
C1132       C  0.27912386  0.33823292  0.15895225     0.07200
C1133       C  0.29690871  0.35224547  0.15810136    -0.05900
H1134       H  0.27849384  0.30256183  0.15382680     0.07900
H1135       H  0.29677869  0.36965937  0.16100705     0.09100
Cu1136     Cu  0.33205979  0.29521620  0.14517905     0.44200
Cu1137     Cu  0.34700245  0.35144377  0.14880436     0.42000
Cu1138     Cu  0.38997721  0.31051349  0.14121260     0.43900
N1139       N  0.35800934  0.27321618  0.14602523    -0.34500
N1140       N  0.37913122  0.27862672  0.14539209    -0.28800
C1141       C  0.39145862  0.26056313  0.14861211    -0.04900
C1142       C  0.37731782  0.24311567  0.15121145     0.07300
C1143       C  0.35632197  0.25164891  0.14940763     0.01100
H1144       H  0.40930727  0.26021951  0.14922346     0.08800
H1145       H  0.34091968  0.24294248  0.15114219     0.07800
N1146       N  0.39539998  0.34395599  0.13934600    -0.36000
N1147       N  0.37980779  0.35873523  0.14262549    -0.28200
C1148       C  0.38880491  0.37873658  0.14166400    -0.03400
C1149       C  0.41106216  0.37644728  0.13749119     0.05200
C1150       C  0.41471966  0.35422692  0.13603671     0.03300
H1151       H  0.37987136  0.39381889  0.14420691     0.08400
H1152       H  0.43038255  0.34611615  0.13356122     0.07200
N1153       N  0.51139737  0.52070446  0.13706836    -0.36500
N1154       N  0.47936840  0.48552369  0.13583864    -0.57000
N1155       N  0.51513935  0.45406317  0.13285498    -0.36500
N1156       N  0.54718597  0.48928276  0.13583035    -0.57000
C1157       C  0.49282587  0.53141269  0.14300893     0.27100
C1158       C  0.52870102  0.53346143  0.14286866     0.27100
C1159       C  0.49793983  0.44064026  0.13692208     0.27100
C1160       C  0.53387201  0.44260924  0.13680886     0.27100
C1161       C  0.46542205  0.50263068  0.13372275     0.35700
C1162       C  0.46739396  0.46741391  0.13160320     0.35700
C1163       C  0.55900583  0.50780396  0.13348615     0.35700
C1164       C  0.56099233  0.47256389  0.13128196     0.35700
C1165       C  0.49839887  0.55121960  0.15260263    -0.21800
C1166       C  0.52104029  0.55253366  0.15245698    -0.21800
C1167       C  0.50584290  0.42033148  0.14325114    -0.21800
C1168       C  0.52851527  0.42158419  0.14321167    -0.21800
C1169       C  0.44445969  0.49537421  0.12813997    -0.22800
C1170       C  0.44569669  0.47302237  0.12685023    -0.22800
C1171       C  0.58046562  0.50284853  0.12752763    -0.22800
C1172       C  0.58172746  0.48049830  0.12611754    -0.22800
C1173       C  0.47096419  0.52446434  0.13869661    -0.18200
C1174       C  0.55114743  0.52893180  0.13857589    -0.18200
C1175       C  0.55565003  0.45024710  0.13364887    -0.18200
C1176       C  0.47535151  0.44585638  0.13388729    -0.18200
H1177       H  0.48728595  0.56359263  0.15880051     0.14700
H1178       H  0.53075608  0.56607241  0.15858109     0.14700
H1179       H  0.49628143  0.40602187  0.14731515     0.14700
H1180       H  0.53977707  0.40843916  0.14727597     0.14700
H1181       H  0.42972526  0.50512480  0.12573146     0.13000
H1182       H  0.43210174  0.46212648  0.12324476     0.13000
H1183       H  0.59391264  0.51412622  0.12494006     0.13000
H1184       H  0.59635430  0.47113564  0.12222399     0.13000
H1185       H  0.51210806  0.50679505  0.12729791     0.26300
H1186       H  0.51418632  0.46931396  0.12549002     0.26300
N1187       N  0.17297378  0.51094142  0.51525567    -0.36500
N1188       N  0.18068416  0.47823659  0.54961470    -0.57000
N1189       N  0.18268973  0.44491287  0.51589456    -0.36500
N1190       N  0.17740573  0.47747200  0.48149991    -0.57000
C1191       C  0.17620140  0.52395689  0.53301254     0.27100
C1192       C  0.17484098  0.52352761  0.49704250     0.27100
C1193       C  0.18950671  0.43337387  0.53363122     0.27100
C1194       C  0.18753324  0.43295678  0.49787755     0.27100
C1195       C  0.17497757  0.49542572  0.56233881     0.35700
C1196       C  0.17995642  0.46034383  0.56261756     0.35700
C1197       C  0.17081077  0.49431382  0.46871086     0.35700
C1198       C  0.17491260  0.45920790  0.46924047     0.35700
C1199       C  0.17983155  0.54516679  0.52598231    -0.21800
C1200       C  0.17898803  0.54488807  0.50333533    -0.21800
C1201       C  0.19891309  0.41388970  0.52679848    -0.21800
C1202       C  0.19767453  0.41362927  0.50421065    -0.21800
C1203       C  0.17087804  0.48843133  0.58360850    -0.22800
C1204       C  0.17408909  0.46621536  0.58378967    -0.22800
C1205       C  0.16439794  0.48674622  0.44812979    -0.22800
C1206       C  0.16685331  0.46447428  0.44851923    -0.22800
C1207       C  0.17485323  0.51750029  0.55540207    -0.18200
C1208       C  0.17158812  0.51653393  0.47495884    -0.18200
C1209       C  0.18106991  0.43801705  0.47609786    -0.18200
C1210       C  0.18535684  0.43891761  0.55578395    -0.18200
H1211       H  0.18272303  0.55942319  0.53611821     0.14700
H1212       H  0.18101979  0.55888059  0.49271818     0.14700
H1213       H  0.20543207  0.40094066  0.53705641     0.14700
H1214       H  0.20310206  0.40045702  0.49366552     0.14700
H1215       H  0.16628117  0.49834648  0.59759528     0.13000
H1216       H  0.17237704  0.45562151  0.59789477     0.13000
H1217       H  0.15852904  0.49627367  0.43428882     0.13000
H1218       H  0.16341552  0.45345702  0.43499622     0.13000
H1219       H  0.16745647  0.49489970  0.51565627     0.26300
H1220       H  0.17240152  0.45851271  0.51618389     0.26300
N1221       N  0.51436844  0.10985985  0.54500628    -0.36500
N1222       N  0.48021937  0.11532834  0.51241201    -0.57000
N1223       N  0.51272290  0.10954681  0.47783959    -0.36500
N1224       N  0.54672205  0.10287007  0.51042123    -0.57000
C1225       C  0.49617681  0.10840171  0.55768122     0.27100
C1226       C  0.53139496  0.10133340  0.55665001     0.27100
C1227       C  0.49371144  0.10718760  0.46631883     0.27100
C1228       C  0.52919269  0.10158937  0.46522509     0.27100
C1229       C  0.46890167  0.12180926  0.53032322     0.35700
C1230       C  0.46794638  0.12110345  0.49475473     0.35700
C1231       C  0.56032488  0.10439694  0.52803529     0.35700
C1232       C  0.55955179  0.10487910  0.49246630     0.35700
C1233       C  0.50169995  0.09889348  0.57764951    -0.21800
C1234       C  0.52397673  0.09448424  0.57703007    -0.21800
C1235       C  0.49816245  0.09765878  0.44610024    -0.21800
C1236       C  0.52060808  0.09420472  0.44538423    -0.21800
C1237       C  0.44930152  0.13178028  0.52404884    -0.22800
C1238       C  0.44869344  0.13134045  0.50144724    -0.22800
C1239       C  0.58193817  0.10716962  0.52125426    -0.22800
C1240       C  0.58142263  0.10762677  0.49868453    -0.22800
C1241       C  0.47509653  0.11672675  0.55214527    -0.18200
C1242       C  0.55369276  0.10137860  0.55000818    -0.18200
C1243       C  0.55190410  0.10245542  0.47061305    -0.18200
C1244       C  0.47278691  0.11496862  0.47293069    -0.18200
H1245       H  0.49087907  0.09578114  0.59136784     0.14700
H1246       H  0.53365498  0.08739378  0.59024525     0.14700
H1247       H  0.48650385  0.09394037  0.43304866     0.14700
H1248       H  0.52962020  0.08731777  0.43171969     0.14700
H1249       H  0.43652903  0.13813651  0.53464430     0.13000
H1250       H  0.43533555  0.13728787  0.49114510     0.13000
H1251       H  0.59660370  0.10838615  0.53145620     0.13000
H1252       H  0.59557996  0.10933855  0.48808756     0.13000
H1253       H  0.51569126  0.11863350  0.53046649     0.26300
H1254       H  0.51468280  0.11856048  0.49221111     0.26300
N1255       N  0.84318648  0.52331750  0.50940127    -0.36500
N1256       N  0.84873018  0.49146639  0.54416671    -0.57000
N1257       N  0.84879695  0.45669945  0.51160474    -0.36500
N1258       N  0.84478831  0.48865926  0.47681182    -0.57000
C1259       C  0.84938844  0.53621440  0.52645477     0.27100
C1260       C  0.84674164  0.53470478  0.49073460     0.27100
C1261       C  0.85479400  0.44551212  0.52984464     0.27100
C1262       C  0.85405681  0.44419977  0.49403805     0.27100
C1263       C  0.84466388  0.50938769  0.55647043     0.35700
C1264       C  0.84666218  0.47414815  0.55770414     0.35700
C1265       C  0.83893577  0.50539148  0.46356547     0.35700
C1266       C  0.84296378  0.47029266  0.46463145     0.35700
C1267       C  0.85699103  0.55598980  0.51853869    -0.21800
C1268       C  0.85527908  0.55505892  0.49597572    -0.21800
C1269       C  0.86364251  0.42550845  0.52385382    -0.21800
C1270       C  0.86328703  0.42472369  0.50124207    -0.21800
C1271       C  0.84010699  0.50344059  0.57794381    -0.22800
C1272       C  0.84144501  0.48109531  0.57874184    -0.22800
C1273       C  0.83319374  0.49760150  0.44287053    -0.22800
C1274       C  0.83592054  0.47534506  0.44350457    -0.22800
C1275       C  0.84697716  0.53105617  0.54896927    -0.18200
C1276       C  0.84131110  0.52764312  0.46920287    -0.18200
C1277       C  0.84961515  0.44936535  0.47176390    -0.18200
C1278       C  0.85114702  0.45232563  0.55172871    -0.18200
H1279       H  0.86283728  0.56977814  0.52806006     0.14700
H1280       H  0.85961575  0.56798632  0.48471375     0.14700
H1281       H  0.86961270  0.41273120  0.53464113     0.14700
H1282       H  0.86889507  0.41119483  0.49126625     0.14700
H1283       H  0.83656310  0.51409813  0.59168578     0.13000
H1284       H  0.83920055  0.47113986  0.59323434     0.13000
H1285       H  0.82829243  0.50702580  0.42860098     0.13000
H1286       H  0.83345287  0.46421133  0.42987240     0.13000
H1287       H  0.83462925  0.50866813  0.51051142     0.26300
H1288       H  0.83941865  0.47089411  0.51132864     0.26300
N1289       N  0.53598264  0.80499186  0.51402035    -0.36500
N1290       N  0.50174260  0.80112831  0.48076311    -0.57000
N1291       N  0.46822315  0.79949942  0.51461528    -0.36500
N1292       N  0.50226573  0.80489091  0.54793908    -0.57000
C1293       C  0.54763223  0.80982499  0.49577307     0.27100
C1294       C  0.54797790  0.81185590  0.53154420     0.27100
C1295       C  0.45555267  0.80312828  0.49655204     0.27100
C1296       C  0.45580950  0.80438102  0.53236153     0.27100
C1297       C  0.51961037  0.79868135  0.46786616     0.35700
C1298       C  0.48404161  0.79594892  0.46821042     0.35700
C1299       C  0.52051002  0.80418108  0.56084170     0.35700
C1300       C  0.48493986  0.80075879  0.56115834     0.35700
C1301       C  0.56747423  0.81945201  0.50179387    -0.21800
C1302       C  0.56772178  0.82068122  0.52438613    -0.21800
C1303       C  0.43477243  0.81013594  0.50291541    -0.21800
C1304       C  0.43491462  0.81085788  0.52552478    -0.21800
C1305       C  0.51326921  0.79179788  0.44703493    -0.22800
C1306       C  0.49069695  0.79001164  0.44726686    -0.22800
C1307       C  0.51474552  0.79971870  0.58239015    -0.22800
C1308       C  0.49220582  0.79742879  0.58256791    -0.22800
C1309       C  0.54118895  0.80503462  0.47389467    -0.18200
C1310       C  0.54201506  0.80949964  0.55384481    -0.18200
C1311       C  0.46255594  0.80229424  0.55457924    -0.18200
C1312       C  0.46193500  0.79935299  0.47453791    -0.18200
H1313       H  0.58045950  0.82498318  0.49103861     0.14700
H1314       H  0.58095152  0.82733429  0.53439160     0.14700
H1315       H  0.42089773  0.81424570  0.49237794     0.14700
H1316       H  0.42119907  0.81567517  0.53576174     0.14700
H1317       H  0.52374762  0.78902824  0.43296176     0.13000
H1318       H  0.48030931  0.78564015  0.43338584     0.13000
H1319       H  0.52560006  0.79865476  0.59657728     0.13000
H1320       H  0.48225347  0.79432142  0.59692602     0.13000
H1321       H  0.52174412  0.79563713  0.51462128     0.26300
H1322       H  0.48359396  0.79196225  0.51491238     0.26300
N1323       N  0.50290634  0.54243417  0.84002790    -0.36500
N1324       N  0.54210624  0.49650202  0.83985176    -0.57000
N1325       N  0.51158313  0.45990738  0.84102685    -0.36500
N1326       N  0.47413086  0.48874532  0.83755015    -0.57000
C1327       C  0.52172562  0.53709400  0.82942934     0.27100
C1328       C  0.48623258  0.53266498  0.82885918     0.27100
C1329       C  0.53097369  0.44955095  0.83723589     0.27100
C1330       C  0.49515239  0.44549565  0.83655967     0.27100
C1331       C  0.55262797  0.51568697  0.84316149     0.35700
C1332       C  0.55677807  0.48052315  0.84433298     0.35700
C1333       C  0.45991112  0.50539191  0.84081709     0.35700
C1334       C  0.46316310  0.47024738  0.84209073     0.35700
C1335       C  0.51678487  0.52502321  0.81075490    -0.21800
C1336       C  0.49435899  0.52218954  0.81041785    -0.21800
C1337       C  0.52674916  0.42840338  0.83018217    -0.21800
C1338       C  0.50420404  0.42584106  0.82983408    -0.21800
C1339       C  0.57415682  0.51198539  0.84998763    -0.22800
C1340       C  0.57686678  0.48961279  0.85053745    -0.22800
C1341       C  0.43965318  0.49754045  0.84751882    -0.22800
C1342       C  0.44163508  0.47511110  0.84807082    -0.22800
C1343       C  0.54238367  0.53620326  0.83997073    -0.18200
C1344       C  0.46590899  0.52744253  0.83838707    -0.18200
C1345       C  0.47226230  0.44914856  0.83971237    -0.18200
C1346       C  0.55239593  0.45797732  0.84169949    -0.18200
H1347       H  0.52842841  0.51700950  0.79998932     0.14700
H1348       H  0.48526620  0.51170381  0.79924469     0.14700
H1349       H  0.53869984  0.41593152  0.82606319     0.14700
H1350       H  0.49546597  0.41108770  0.82535186     0.14700
H1351       H  0.58661131  0.52406042  0.85383953     0.13000
H1352       H  0.59188565  0.48103391  0.85495659     0.13000
H1353       H  0.42505739  0.50693296  0.85144710     0.13000
H1354       H  0.42879014  0.46372242  0.85247902     0.13000
H1355       H  0.50194061  0.54884140  0.85594050     0.26300
H1356       H  0.50978240  0.47502366  0.84862751     0.26300
N1357       N  0.00800776  0.01263835  0.35110744    -0.36500
N1358       N  0.97178016  0.98205185  0.35478657    -0.57000
N1359       N  0.00303658  0.94614566  0.35304804    -0.36500
N1360       N  0.03924345  0.97676258  0.35112122    -0.57000
C1361       C  0.99146207  0.02630604  0.35681927     0.27100
C1362       C  0.02716361  0.02345437  0.35441430     0.27100
C1363       C  0.98435721  0.93555569  0.35857610     0.27100
C1364       C  0.02018105  0.93283690  0.35807001     0.27100
C1365       C  0.96016825  0.00063061  0.35164575     0.35700
C1366       C  0.95747819  0.96545568  0.35161694     0.35700
C1367       C  0.05308916  0.99315822  0.34596371     0.35700
C1368       C  0.05050056  0.95802603  0.34790021     0.35700
C1369       C  0.00017460  0.04611497  0.36362347    -0.21800
C1370       C  0.02273278  0.04431388  0.36212196    -0.21800
C1371       C  0.98960817  0.91517988  0.36699155    -0.21800
C1372       C  0.01225933  0.91351548  0.36682045    -0.21800
C1373       C  0.93832617  0.99584713  0.34675296    -0.22800
C1374       C  0.93663218  0.97351431  0.34666173    -0.22800
C1375       C  0.07328985  0.98483585  0.33942999    -0.22800
C1376       C  0.07165135  0.96252140  0.34066529    -0.22800
C1377       C  0.96869628  0.02182733  0.35471637    -0.18200
C1378       C  0.04843406  0.01545690  0.34940676    -0.18200
C1379       C  0.04263480  0.93714163  0.35363041    -0.18200
C1380       C  0.96268718  0.94321618  0.35468342    -0.18200
H1381       H  0.99120195  0.06044799  0.36893342     0.14700
H1382       H  0.03451851  0.05700031  0.36608144     0.14700
H1383       H  0.97827947  0.90275073  0.37252349     0.14700
H1384       H  0.02177799  0.89951885  0.37219456     0.14700
H1385       H  0.92497756  0.00726130  0.34379823     0.13000
H1386       H  0.92170078  0.96428547  0.34363934     0.13000
H1387       H  0.08785627  0.99390695  0.33487304     0.13000
H1388       H  0.08469573  0.95095907  0.33718706     0.13000
H1389       H  0.00624598  0.99781366  0.34299102     0.26300
H1390       H  0.00379449  0.96042125  0.34390262     0.26300
N1391       N  0.00842778  0.01952786  0.68051547    -0.36500
N1392       N  0.04057762  0.98414599  0.68584146    -0.57000
N1393       N  0.00445225  0.95323273  0.68733202    -0.36500
N1394       N  0.97220188  0.98861406  0.68457281    -0.57000
C1395       C  0.02714419  0.03114134  0.68380255     0.27100
C1396       C  0.99119938  0.03347632  0.68251857     0.27100
C1397       C  0.02165738  0.94013342  0.69284387     0.27100
C1398       C  0.98566927  0.94248722  0.69236816     0.27100
C1399       C  0.05448380  0.00066859  0.68107817     0.35700
C1400       C  0.05236313  0.96546735  0.68393119     0.35700
C1401       C  0.96043225  0.00663451  0.67908890     0.35700
C1402       C  0.95832614  0.97144227  0.68247218     0.35700
C1403       C  0.02172934  0.05279883  0.68771521    -0.21800
C1404       C  0.99908900  0.05428888  0.68679299    -0.21800
C1405       C  0.01371382  0.92085712  0.70162927    -0.21800
C1406       C  0.99101635  0.92237480  0.70141702    -0.21800
C1407       C  0.07528448  0.99248113  0.67644839    -0.22800
C1408       C  0.07391949  0.97017688  0.67816309    -0.22800
C1409       C  0.93884561  0.00095966  0.67409017    -0.22800
C1410       C  0.93755019  0.97868896  0.67604499    -0.22800
C1411       C  0.04902357  0.02311206  0.68195369    -0.18200
C1412       C  0.96864472  0.02825440  0.67923576    -0.18200
C1413       C  0.96392238  0.94939292  0.68695179    -0.18200
C1414       C  0.04418000  0.94430943  0.68832332    -0.18200
H1415       H  0.03294052  0.06624160  0.69060108     0.14700
H1416       H  0.98955782  0.06908806  0.68886519     0.14700
H1417       H  0.02327798  0.90694096  0.70713861     0.14700
H1418       H  0.97969900  0.90981524  0.70666427     0.14700
H1419       H  0.08992182  0.00163150  0.67227698     0.13000
H1420       H  0.08731569  0.95876525  0.67561761     0.13000
H1421       H  0.92545510  0.01171802  0.66933097     0.13000
H1422       H  0.92293334  0.96899483  0.67302160     0.13000
H1423       H  0.00756771  0.00357717  0.67475224     0.26300
H1424       H  0.00537053  0.96722312  0.67773292     0.26300
N1425       N  0.34470625  0.01825477  0.01139223    -0.36500
N1426       N  0.34905024  0.98531589  0.04529658    -0.57000
N1427       N  0.35199186  0.95209615  0.01147523    -0.36500
N1428       N  0.34575204  0.98526439  0.97761334    -0.57000
C1429       C  0.34010333  0.03007299  0.02953702     0.27100
C1430       C  0.33766406  0.02992072  0.99384470     0.27100
C1431       C  0.34879102  0.93958677  0.02950762     0.27100
C1432       C  0.34776765  0.93953951  0.99361552     0.27100
C1433       C  0.35243293  0.00330982  0.05767584     0.35700
C1434       C  0.35491592  0.96814351  0.05792899     0.35700
C1435       C  0.34729108  0.00319732  0.96482861     0.35700
C1436       C  0.35134399  0.96812849  0.96484790     0.35700
C1437       C  0.32995107  0.04948529  0.02351720    -0.21800
C1438       C  0.32835538  0.04936437  0.00092697    -0.21800
C1439       C  0.34272132  0.91873761  0.02300663    -0.21800
C1440       C  0.34215887  0.91868471  0.00034629    -0.21800
C1441       C  0.36036909  0.99756324  0.07832374    -0.22800
C1442       C  0.36184733  0.97521377  0.07851560    -0.22800
C1443       C  0.35376172  0.99744065  0.94379768    -0.22800
C1444       C  0.35628933  0.97516114  0.94379328    -0.22800
C1445       C  0.34683102  0.02466890  0.05110463    -0.18200
C1446       C  0.34170565  0.02449596  0.97166768    -0.18200
C1447       C  0.35008991  0.94611236  0.97143414    -0.18200
C1448       C  0.35262312  0.94613422  0.05156962    -0.18200
H1449       H  0.32477484  0.06260462  0.03425321     0.14700
H1450       H  0.32177037  0.06240179  0.99082414     0.14700
H1451       H  0.33936051  0.90491054  0.03349741     0.14700
H1452       H  0.33821693  0.90482158  0.99000300     0.14700
H1453       H  0.36430147  0.00831096  0.09193835     0.13000
H1454       H  0.36724624  0.96529555  0.09226255     0.13000
H1455       H  0.35613224  0.00812808  0.92986695     0.13000
H1456       H  0.36093172  0.96523531  0.92982737     0.13000
H1457       H  0.35498021  0.00467048  0.01090665     0.26300
H1458       H  0.35903997  0.96753422  0.01125128     0.26300
N1459       N  0.05039238  0.35170271  0.01529833    -0.36500
N1460       N  0.01596441  0.34833058  0.98193154    -0.57000
N1461       N  0.98274886  0.35451579  0.01570310    -0.36500
N1462       N  0.01721635  0.36005595  0.04873268    -0.57000
C1463       C  0.06269603  0.35238747  0.99680957     0.27100
C1464       C  0.06338451  0.35841449  0.03221344     0.27100
C1465       C  0.97028266  0.35670673  0.99728354     0.27100
C1466       C  0.97096312  0.36286226  0.03255973     0.27100
C1467       C  0.03342327  0.34205546  0.96972866     0.35700
C1468       C  0.99768701  0.34343441  0.97004196     0.35700
C1469       C  0.03518288  0.35773507  0.06186961     0.35700
C1470       C  0.99942703  0.35936327  0.06202092     0.35700
C1471       C  0.08381231  0.35947395  0.00206874    -0.21800
C1472       C  0.08424449  0.36328308  0.02439708    -0.21800
C1473       C  0.95029852  0.36641478  0.00251718    -0.21800
C1474       C  0.95072846  0.37029834  0.02479378    -0.21800
C1475       C  0.02620591  0.33329377  0.94990687    -0.22800
C1476       C  0.00355168  0.33415474  0.95011258    -0.22800
C1477       C  0.02875661  0.35571177  0.08361535    -0.22800
C1478       C  0.00611260  0.35678739  0.08370877    -0.22800
C1479       C  0.05578342  0.34554985  0.97557597    -0.18200
C1480       C  0.05733935  0.35891301  0.05469124    -0.18200
C1481       C  0.97733723  0.36247392  0.05497811    -0.18200
C1482       C  0.97590940  0.34900614  0.97612422    -0.18200
H1483       H  0.09755863  0.36149682  0.99099851     0.14700
H1484       H  0.09838907  0.36881177  0.03383987     0.14700
H1485       H  0.93671868  0.37013883  0.99146141     0.14700
H1486       H  0.93752621  0.37753410  0.03424256     0.14700
H1487       H  0.03622491  0.32722948  0.93655471     0.13000
H1488       H  0.99266344  0.32892260  0.93693425     0.13000
H1489       H  0.03927952  0.35388032  0.09796455     0.13000
H1490       H  0.99576879  0.35593631  0.09811325     0.13000
H1491       H  0.03492264  0.34463338  0.01672067     0.26300
H1492       H  0.99723312  0.34550748  0.01710749     0.26300
N1493       N  0.64202669  0.03658818  0.01214981    -0.36500
N1494       N  0.64549304  0.00232878  0.97965110    -0.57000
N1495       N  0.64509105  0.96975090  0.01443867    -0.36500
N1496       N  0.63965971  0.00391284  0.04691548    -0.57000
C1497       C  0.63871644  0.04815170  0.99347297     0.27100
C1498       C  0.63473830  0.04894508  0.02905934     0.27100
C1499       C  0.64149244  0.95698398  0.99659974     0.27100
C1500       C  0.63986944  0.95784207  0.03236822     0.27100
C1501       C  0.64940141  0.01958948  0.96649227     0.35700
C1502       C  0.64972916  0.98433913  0.96756611     0.35700
C1503       C  0.64130608  0.02220805  0.05924374     0.35700
C1504       C  0.64378446  0.98694972  0.06055915     0.35700
C1505       C  0.62942535  0.06820180  0.99856841    -0.21800
C1506       C  0.62685909  0.06868391  0.02104306    -0.21800
C1507       C  0.63418994  0.93664182  0.00329654    -0.21800
C1508       C  0.63322723  0.93716386  0.02587908    -0.21800
C1509       C  0.65615454  0.01253675  0.94593033    -0.22800
C1510       C  0.65626832  0.99016389  0.94658585    -0.22800
C1511       C  0.64645020  0.01683363  0.08083839    -0.22800
C1512       C  0.64796496  0.99446850  0.08167375    -0.22800
C1513       C  0.64487017  0.04147815  0.97210991    -0.18200
C1514       C  0.63656084  0.04351831  0.05162006    -0.18200
C1515       C  0.64212618  0.96475093  0.05447431    -0.18200
C1516       C  0.64568977  0.96278502  0.97452797    -0.18200
H1517       H  0.62509351  0.08119330  0.98728572     0.14700
H1518       H  0.62022455  0.08216101  0.03044519     0.14700
H1519       H  0.63014473  0.92277607  0.99299504     0.14700
H1520       H  0.62828834  0.92379325  0.03633562     0.14700
H1521       H  0.66001918  0.02245206  0.93176403     0.13000
H1522       H  0.66026882  0.97940935  0.93304579     0.13000
H1523       H  0.64849166  0.02785698  0.09462745     0.13000
H1524       H  0.65141973  0.98482680  0.09619988     0.13000
H1525       H  0.65109177  0.02225629  0.01353748     0.26300
H1526       H  0.65293240  0.98480299  0.01455243     0.26300
N1527       N  0.97126784  0.66934499  0.01147655    -0.36500
N1528       N  0.00343840  0.66977649  0.97682060    -0.57000
N1529       N  0.03923422  0.66892387  0.00937973    -0.36500
N1530       N  0.00693082  0.66684595  0.04402382    -0.57000
C1531       C  0.95822452  0.66439098  0.99397998     0.27100
C1532       C  0.96004671  0.66387893  0.02976933     0.27100
C1533       C  0.05040713  0.66457221  0.99069640     0.27100
C1534       C  0.05223418  0.66265184  0.02650048     0.27100
C1535       C  0.98500581  0.67287395  0.96454130     0.35700
C1536       C  0.02071180  0.67347632  0.96345880     0.35700
C1537       C  0.98971785  0.67026654  0.05758090     0.35700
C1538       C  0.02537873  0.66903642  0.05647424     0.35700
C1539       C  0.93837033  0.65596341  0.00128916    -0.21800
C1540       C  0.93950272  0.65568354  0.02389180    -0.21800
C1541       C  0.07092771  0.65587495  0.99602166    -0.21800
C1542       C  0.07206141  0.65464007  0.01860377    -0.21800
C1543       C  0.99056789  0.67874694  0.94330646    -0.22800
C1544       C  0.01322422  0.67915936  0.94262150    -0.22800
C1545       C  0.99725322  0.67471663  0.07871079    -0.22800
C1546       C  0.01986900  0.67384576  0.07802210    -0.22800
C1547       C  0.96341431  0.66814004  0.97164922    -0.18200
C1548       C  0.96735602  0.66729194  0.05164057    -0.18200
C1549       C  0.04699438  0.66476658  0.04907568    -0.18200
C1550       C  0.04294088  0.66893921  0.96899634    -0.18200
H1551       H  0.92444309  0.65068610  0.99138656     0.14700
H1552       H  0.92661855  0.65016891  0.03477548     0.14700
H1553       H  0.08376626  0.65087109  0.98479770     0.14700
H1554       H  0.08593180  0.64855379  0.02811509     0.14700
H1555       H  0.97947230  0.68176333  0.92959713     0.13000
H1556       H  0.02306429  0.68243965  0.92822368     0.13000
H1557       H  0.98747357  0.67774167  0.09322576     0.13000
H1558       H  0.03098046  0.67613275  0.09186179     0.13000
H1559       H  0.98594383  0.67808143  0.01116133     0.26300
H1560       H  0.02450626  0.67757822  0.01037259     0.26300
C1561       C  0.43736385  0.39925435  0.11662925    -0.20200
C1562       C  0.42768984  0.39396465  0.13679282    -0.06700
C1563       C  0.43394131  0.40547194  0.15598095     0.14100
C1564       C  0.44950040  0.42231492  0.15449270    -0.20200
C1565       C  0.45900708  0.42780105  0.13429681    -0.06700
C1566       C  0.45293216  0.41611548  0.11511161     0.14100
C1567       C  0.46242982  0.42111127  0.09285643    -0.23600
H1568       H  0.43257722  0.39032246  0.10194258     0.15400
H1569       H  0.45437777  0.43123619  0.16914932     0.15400
C1570       C  0.42459879  0.39965111  0.17809388    -0.23500
H1571       H  0.47090647  0.40639880  0.08637200     0.05700
H1572       H  0.47452530  0.43464661  0.09327231     0.08900
H1573       H  0.44889519  0.42573796  0.08134615     0.08900
H1574       H  0.42827497  0.38229350  0.18186234     0.08900
H1575       H  0.40646480  0.40220228  0.17800231     0.08900
H1576       H  0.43178538  0.40983888  0.19145898     0.05600
C1577       C  0.19405870  0.39866089  0.42940906    -0.20200
C1578       C  0.17694566  0.38340220  0.43159682    -0.06700
C1579       C  0.16102771  0.38641790  0.44825818     0.14100
C1580       C  0.16270456  0.40458186  0.46223442    -0.20200
C1581       C  0.17985172  0.41971654  0.46005599    -0.06700
C1582       C  0.19585064  0.41666376  0.44360364     0.14100
C1583       C  0.21500011  0.43210337  0.44131411    -0.23600
H1584       H  0.20616542  0.39639202  0.41656725     0.15400
H1585       H  0.15057943  0.40704662  0.47502882     0.15400
C1586       C  0.14175146  0.37118071  0.45092523    -0.23500
H1587       H  0.22630995  0.42694579  0.42798107     0.05700
H1588       H  0.22458346  0.43262056  0.45694823     0.08900
H1589       H  0.20893927  0.44873394  0.43736975     0.08900
H1590       H  0.14764491  0.35488645  0.45622501     0.08900
H1591       H  0.13249009  0.36977865  0.43515549     0.08900
H1592       H  0.13010082  0.37710701  0.46363575     0.05600
C1593       C  0.42015343  0.10520451  0.43986085    -0.20200
C1594       C  0.42239456  0.12069893  0.42309081    -0.06700
C1595       C  0.44097392  0.13462344  0.42304347     0.14100
C1596       C  0.45702852  0.13238434  0.43961700    -0.20200
C1597       C  0.45501426  0.11655020  0.45608022    -0.06700
C1598       C  0.43635376  0.10272932  0.45621833     0.14100
C1599       C  0.43316368  0.08496721  0.47302281    -0.23600
H1600       H  0.40590194  0.09452931  0.43988187     0.15400
H1601       H  0.47129384  0.14303551  0.43979238     0.15400
C1602       C  0.44358754  0.15241463  0.40618353    -0.23500
H1603       H  0.41799308  0.08833917  0.48259159     0.05700
H1604       H  0.44718685  0.08338233  0.48470745     0.08900
H1605       H  0.43128124  0.06904206  0.46449649     0.08900
H1606       H  0.42876007  0.16309025  0.40611062     0.08900
H1607       H  0.44593364  0.14527517  0.38962051     0.08900
H1608       H  0.45820163  0.16277473  0.40977759     0.05600
C1609       C  0.06755054  0.04584580  0.33074779    -0.20200
C1610       C  0.06679040  0.03140696  0.34860986    -0.06700
C1611       C  0.08244776  0.03334050  0.36587654     0.14100
C1612       C  0.09837963  0.04981128  0.36485857    -0.20200
C1613       C  0.09867032  0.06468663  0.34737780    -0.06700
C1614       C  0.08329952  0.06255590  0.32995791     0.14100
C1615       C  0.08377271  0.07756359  0.31037964    -0.23600
H1616       H  0.05549560  0.04421670  0.31757418     0.15400
H1617       H  0.11028043  0.05147222  0.37817734     0.15400
C1618       C  0.08246452  0.01882648  0.38587818    -0.23500
H1619       H  0.07103570  0.07310383  0.29792886     0.05700
H1620       H  0.10018536  0.07663080  0.30242769     0.08900
H1621       H  0.08057119  0.09459285  0.31566939     0.08900
H1622       H  0.06893303  0.00671534  0.38574726     0.08900
H1623       H  0.08060311  0.02898397  0.40089162     0.08900
H1624       H  0.09837376  0.00984578  0.38691374     0.05600
C1625       C  0.33100774  0.04412019  0.08313030    -0.20200
C1626       C  0.34793253  0.04232452  0.06768859    -0.06700
C1627       C  0.36581361  0.05699105  0.06828866     0.14100
C1628       C  0.36641065  0.07320327  0.08450888    -0.20200
C1629       C  0.34969624  0.07485366  0.10026625    -0.06700
C1630       C  0.33164733  0.06023875  0.09950492     0.14100
C1631       C  0.31266497  0.06196675  0.11529303    -0.23600
H1632       H  0.31730939  0.03278936  0.08234524     0.15400
H1633       H  0.38023746  0.08438595  0.08517204     0.15400
C1634       C  0.38443513  0.05524068  0.05208863    -0.23500
H1635       H  0.29924339  0.05034704  0.11104043     0.05700
H1636       H  0.30564330  0.07870248  0.11480960     0.08900
H1637       H  0.31825528  0.05808681  0.13222682     0.08900
H1638       H  0.37803237  0.05758329  0.03510011     0.08900
H1639       H  0.39226948  0.03889793  0.05338661     0.08900
H1640       H  0.39733577  0.06774348  0.05519397     0.05600
C1641       C  0.09370181  0.37771510  0.10278012    -0.20200
C1642       C  0.10746451  0.35949718  0.10557369    -0.06700
C1643       C  0.10548850  0.34165832  0.09095467     0.14100
C1644       C  0.08925157  0.34214111  0.07435053    -0.20200
C1645       C  0.07525093  0.36022522  0.07167557    -0.06700
C1646       C  0.07794657  0.37852824  0.08569800     0.14100
C1647       C  0.06470453  0.39919486  0.08293919    -0.23600
H1648       H  0.09549365  0.39154399  0.11379115     0.15400
H1649       H  0.08723635  0.32820527  0.06352408     0.15400
C1650       C  0.12004483  0.32181898  0.09323274    -0.23500
H1651       H  0.07609097  0.41315908  0.08061572     0.05700
H1652       H  0.05473695  0.40211360  0.09790552     0.08900
H1653       H  0.05341203  0.39872094  0.06851866     0.08900
H1654       H  0.11814122  0.31466135  0.10987162     0.08900
H1655       H  0.13755081  0.32640228  0.09074210     0.08900
H1656       H  0.11577584  0.30909169  0.08090009     0.05600
C1657       C  0.87749556  0.41354709  0.42910990    -0.20200
C1658       C  0.86077029  0.39847426  0.42415219    -0.06700
C1659       C  0.83996394  0.40061002  0.43436910     0.14100
C1660       C  0.83664775  0.41744296  0.44974291    -0.20200
C1661       C  0.85353888  0.43222752  0.45488975    -0.06700
C1662       C  0.87414985  0.43034181  0.44441874     0.14100
C1663       C  0.89264205  0.44597089  0.44957553    -0.23600
H1664       H  0.89335647  0.41201688  0.42111731     0.15400
H1665       H  0.82082472  0.41915837  0.45776617     0.15400
C1666       C  0.82098162  0.38582216  0.42848726    -0.23500
H1667       H  0.90770615  0.44214654  0.44000496     0.05700
H1668       H  0.89695334  0.44506589  0.46733508     0.08900
H1669       H  0.88743157  0.46286776  0.44549618     0.08900
H1670       H  0.82484132  0.36881930  0.43334961     0.08900
H1671       H  0.81774519  0.38651430  0.41049551     0.08900
H1672       H  0.80560628  0.39070181  0.43704431     0.05600
C1673       C  0.58744495  0.11322698  0.42027449    -0.20200
C1674       C  0.60134675  0.09491648  0.42048270    -0.06700
C1675       C  0.59844269  0.07868720  0.43663616     0.14100
C1676       C  0.58186181  0.08134542  0.45244254    -0.20200
C1677       C  0.56841731  0.10004610  0.45271399    -0.06700
C1678       C  0.57127200  0.11621852  0.43638690     0.14100
C1679       C  0.55813709  0.13713527  0.43582201    -0.23600
H1680       H  0.58976566  0.12571506  0.40789587     0.15400
H1681       H  0.57952292  0.06892586  0.46487497     0.15400
C1682       C  0.61248624  0.05838531  0.43694034    -0.23500
H1683       H  0.56958235  0.15124356  0.43660132     0.05700
H1684       H  0.54653232  0.13880095  0.44969967     0.08900
H1685       H  0.54850679  0.13798505  0.42023011     0.08900
H1686       H  0.63004668  0.06274691  0.43972041     0.08900
H1687       H  0.61079618  0.04967364  0.42098852     0.08900
H1688       H  0.60751594  0.04705480  0.45024144     0.05600
C1689       C  0.60526147  0.41581982  0.15079450    -0.20200
C1690       C  0.60824130  0.40282105  0.13204205    -0.06700
C1691       C  0.59376321  0.40521424  0.11387838     0.14100
C1692       C  0.57684833  0.42091147  0.11474263    -0.20200
C1693       C  0.57392054  0.43395047  0.13348834    -0.06700
C1694       C  0.58801743  0.43110823  0.15188071     0.14100
C1695       C  0.58449008  0.44378410  0.17281676    -0.23600
H1696       H  0.61622251  0.41366687  0.16480943     0.15400
H1697       H  0.56581374  0.42303874  0.10078322     0.15400
C1698       C  0.59643561  0.39156127  0.09345335    -0.23500
H1699       H  0.59660477  0.43911130  0.18579226     0.05700
H1700       H  0.56766581  0.44054849  0.17913758     0.08900
H1701       H  0.58630604  0.46150643  0.16969634     0.08900
H1702       H  0.59429716  0.37405448  0.09749855     0.08900
H1703       H  0.61313601  0.39410271  0.08653248     0.08900
H1704       H  0.58404854  0.39590697  0.08061365     0.05600
C1705       C  0.61441331  0.07927104  0.09784382    -0.20200
C1706       C  0.63147809  0.09456601  0.10017938    -0.06700
C1707       C  0.64992331  0.09338248  0.08604979     0.14100
C1708       C  0.65093187  0.07672189  0.07022670    -0.20200
C1709       C  0.63400708  0.06130844  0.06811347    -0.06700
C1710       C  0.61531018  0.06282051  0.08176360     0.14100
C1711       C  0.59620825  0.04731196  0.07915270    -0.23600
H1712       H  0.60029039  0.08025880  0.10864041     0.15400
H1713       H  0.66517432  0.07545144  0.05961229     0.15400
C1714       C  0.66910006  0.10888567  0.08817717    -0.23500
H1715       H  0.58264852  0.05123243  0.09070362     0.05700
H1716       H  0.60165438  0.03034588  0.08246389     0.08900
H1717       H  0.58952821  0.04834570  0.06212391     0.08900
H1718       H  0.67574506  0.10853673  0.10524595     0.08900
H1719       H  0.66378544  0.12566704  0.08392271     0.08900
H1720       H  0.68273022  0.10446057  0.07688869     0.05600
C1721       C  0.95015806  0.05392760  0.33775020    -0.20200
C1722       C  0.95292720  0.04034440  0.35609553    -0.06700
C1723       C  0.94073186  0.04438999  0.37534917     0.14100
C1724       C  0.92539207  0.06153614  0.37554822    -0.20200
C1725       C  0.92239645  0.07502062  0.35713757    -0.06700
C1726       C  0.93505582  0.07132720  0.33805257     0.14100
C1727       C  0.93210017  0.08510244  0.31774176    -0.23600
H1728       H  0.95971318  0.05071768  0.32309162     0.15400
H1729       H  0.91578108  0.06456185  0.39021072     0.15400
C1730       C  0.94413905  0.03080324  0.39572527    -0.23500
H1731       H  0.94259514  0.07925320  0.30403289     0.05700
H1732       H  0.93678494  0.10222308  0.32131909     0.08900
H1733       H  0.91461868  0.08452310  0.31215306     0.08900
H1734       H  0.96165401  0.03183178  0.40114653     0.08900
H1735       H  0.93993758  0.01352652  0.39225569     0.08900
H1736       H  0.93361912  0.03650078  0.40947610     0.05600
C1737       C  0.92727041  0.35598946  0.09217343    -0.20200
C1738       C  0.92814140  0.37547004  0.10425955    -0.06700
C1739       C  0.94468950  0.39092413  0.09965932     0.14100
C1740       C  0.96043513  0.38625026  0.08348466    -0.20200
C1741       C  0.96005937  0.36643929  0.07187366    -0.06700
C1742       C  0.94313883  0.35114815  0.07617606     0.14100
C1743       C  0.94159327  0.32941131  0.06463541    -0.23600
H1744       H  0.91452900  0.34414112  0.09574530     0.15400
H1745       H  0.97317105  0.39807539  0.07986403     0.15400
C1746       C  0.94542373  0.41253554  0.11145190    -0.23500
H1747       H  0.92576572  0.32848058  0.05534593     0.05700
H1748       H  0.94206720  0.31611347  0.07700883     0.08900
H1749       H  0.95525442  0.32648205  0.05299454     0.08900
H1750       H  0.94802969  0.40992708  0.12933659     0.08900
H1751       H  0.92961700  0.42138508  0.10877126     0.08900
H1752       H  0.95903677  0.42298180  0.10539950     0.05600
C1753       C  0.57233969  0.82808827  0.42507750    -0.20200
C1754       C  0.58871979  0.81216820  0.42218827    -0.06700
C1755       C  0.58942452  0.79387614  0.43631659     0.14100
C1756       C  0.57376728  0.79205402  0.45310075    -0.20200
C1757       C  0.55756458  0.80810094  0.45611805    -0.06700
C1758       C  0.55690656  0.82644827  0.44204713     0.14100
C1759       C  0.54038559  0.84468750  0.44464557    -0.23600
H1760       H  0.57186426  0.84215517  0.41428847     0.15400
H1761       H  0.57403667  0.77798710  0.46388151     0.15400
C1762       C  0.60607735  0.77585297  0.43326297    -0.23500
H1763       H  0.53007896  0.84593146  0.42951526     0.05700
H1764       H  0.54927157  0.86032624  0.44717719     0.08900
H1765       H  0.52924918  0.84239159  0.45881761     0.08900
H1766       H  0.62299904  0.78209982  0.43619285     0.08900
H1767       H  0.60477640  0.76922825  0.41629249     0.08900
H1768       H  0.60335644  0.76221940  0.44493386     0.05600
C1769       C  0.82459856  0.57609228  0.43350880    -0.20200
C1770       C  0.84149006  0.57600352  0.41785238    -0.06700
C1771       C  0.85812887  0.55978175  0.41894470     0.14100
C1772       C  0.85747109  0.54416772  0.43574635    -0.20200
C1773       C  0.84054710  0.54419774  0.45132120    -0.06700
C1774       C  0.82377175  0.56021222  0.45010428     0.14100
C1775       C  0.80484240  0.56034234  0.46603658    -0.23600
H1776       H  0.81190457  0.58855822  0.43261732     0.15400
H1777       H  0.87037476  0.53193545  0.43694218     0.15400
C1778       C  0.87718618  0.55935206  0.40315677    -0.23500
H1779       H  0.79280201  0.57351911  0.46222478     0.05700
H1780       H  0.81100410  0.56299052  0.48305377     0.08900
H1781       H  0.79602463  0.54450337  0.46517876     0.08900
H1782       H  0.88575615  0.57534067  0.40335081     0.08900
H1783       H  0.87120381  0.55565999  0.38629633     0.08900
H1784       H  0.88946954  0.54658909  0.40759854     0.05600
C1785       C  0.56689343  0.56290529  0.12303741    -0.20200
C1786       C  0.56713679  0.54735461  0.13992773    -0.06700
C1787       C  0.58191342  0.54998618  0.15785189     0.14100
C1788       C  0.59632408  0.56789987  0.15817926    -0.20200
C1789       C  0.59597435  0.58363833  0.14140328    -0.06700
C1790       C  0.58104711  0.58104060  0.12353265     0.14100
C1791       C  0.58045856  0.59673334  0.10448491    -0.23600
H1792       H  0.55547529  0.56080146  0.10937783     0.15400
H1793       H  0.60771177  0.56978633  0.17189990     0.15400
C1794       C  0.58265099  0.53448644  0.17706492    -0.23500
H1795       H  0.56919100  0.59105037  0.09116844     0.05700
H1796       H  0.59721371  0.59839250  0.09742572     0.08900
H1797       H  0.57435705  0.61287325  0.10997170     0.08900
H1798       H  0.59929687  0.52695204  0.17825385     0.08900
H1799       H  0.57032232  0.52121918  0.17576765     0.08900
H1800       H  0.57932144  0.54361439  0.19248178     0.05600
C1801       C  0.95046043  0.64821407  0.08332910    -0.20200
C1802       C  0.95076192  0.66644057  0.06943051    -0.06700
C1803       C  0.93541254  0.68350413  0.07251988     0.14100
C1804       C  0.91953499  0.68158607  0.08903265    -0.20200
C1805       C  0.91911870  0.66330118  0.10279485    -0.06700
C1806       C  0.93488922  0.64652209  0.10016439     0.14100
C1807       C  0.93491658  0.62658666  0.11462621    -0.23600
H1808       H  0.96240900  0.63526428  0.08087598     0.15400
H1809       H  0.90741403  0.69441654  0.09128325     0.15400
C1810       C  0.93600242  0.70381658  0.05862290    -0.23500
H1811       H  0.94795963  0.61479053  0.10980220     0.05700
H1812       H  0.91871887  0.61822398  0.11335361     0.08900
H1813       H  0.93803727  0.63137699  0.13197840     0.08900
H1814       H  0.93291951  0.69965864  0.04110420     0.08900
H1815       H  0.95242470  0.71168905  0.06026338     0.08900
H1816       H  0.92326186  0.71581220  0.06372827     0.05600
C1817       C  0.92360463  0.89826401  0.33609013    -0.20200
C1818       C  0.90950896  0.89689822  0.35419267    -0.06700
C1819       C  0.91328804  0.91034782  0.37275132     0.14100
C1820       C  0.93073217  0.92535466  0.37242659    -0.20200
C1821       C  0.94450783  0.92704856  0.35409903    -0.06700
C1822       C  0.94098770  0.91329236  0.33571652     0.14100
C1823       C  0.95504057  0.91420085  0.31538273    -0.23600
H1824       H  0.92083055  0.88772777  0.32199153     0.15400
H1825       H  0.93378234  0.93575116  0.38656562     0.15400
C1826       C  0.89960468  0.90831528  0.39323277    -0.23500
H1827       H  0.96321213  0.89816956  0.31287620     0.05700
H1828       H  0.96802560  0.92687645  0.31623660     0.08900
H1829       H  0.94443099  0.91782535  0.30086134     0.08900
H1830       H  0.90031322  0.89127516  0.39937447     0.08900
H1831       H  0.88222703  0.91284856  0.38966150     0.08900
H1832       H  0.90569101  0.91921606  0.40656349     0.05600
C1833       C  0.62171692  0.94455639  0.08347070    -0.20200
C1834       C  0.64144657  0.94778500  0.07202184    -0.06700
C1835       C  0.65964781  0.93392728  0.07622598     0.14100
C1836       C  0.65761925  0.91698424  0.09163088    -0.20200
C1837       C  0.63786969  0.91367936  0.10305233    -0.06700
C1838       C  0.61966498  0.92759488  0.09886803     0.14100
C1839       C  0.59777039  0.92397327  0.10982212    -0.23600
H1840       H  0.60771168  0.95503865  0.07990467     0.15400
H1841       H  0.67153141  0.90627182  0.09483489     0.15400
C1842       C  0.68120121  0.93709099  0.06448789    -0.23500
H1843       H  0.58507441  0.93574392  0.10394503     0.05700
H1844       H  0.59953545  0.92603963  0.12787133     0.08900
H1845       H  0.59177483  0.90724438  0.10614042     0.08900
H1846       H  0.68756752  0.95375358  0.06781596     0.08900
H1847       H  0.67876098  0.93497476  0.04650153     0.08900
H1848       H  0.69388042  0.92514620  0.07001814     0.05600
C1849       C  0.14980984  0.56212604  0.43773588    -0.20200
C1850       C  0.16689357  0.56388871  0.42238468    -0.06700
C1851       C  0.18562639  0.55024857  0.42452711     0.14100
C1852       C  0.18677429  0.53523202  0.44197844    -0.20200
C1853       C  0.16954668  0.53329045  0.45719469    -0.06700
C1854       C  0.15069098  0.54678336  0.45485754     0.14100
C1855       C  0.13102282  0.54516490  0.46978375    -0.23600
H1856       H  0.13542323  0.57257529  0.43612031     0.15400
H1857       H  0.20118077  0.52484934  0.44377893     0.15400
C1858       C  0.20474119  0.55196904  0.40893800    -0.23500
H1859       H  0.12861113  0.56094095  0.47844089     0.05700
H1860       H  0.13271861  0.53215936  0.48230828     0.08900
H1861       H  0.11603347  0.54153288  0.45981430     0.08900
H1862       H  0.21124541  0.56888813  0.40905021     0.08900
H1863       H  0.19932506  0.54758948  0.39203905     0.08900
H1864       H  0.21843520  0.54078644  0.41362499     0.05600
C1865       C  0.42771642  0.81685193  0.42482217    -0.20200
C1866       C  0.41193148  0.80018491  0.42377784    -0.06700
C1867       C  0.41251352  0.78326860  0.43955771     0.14100
C1868       C  0.42902510  0.78342982  0.45590538    -0.20200
C1869       C  0.44468735  0.80022778  0.45701431    -0.06700
C1870       C  0.44383947  0.81733615  0.44143308     0.14100
C1871       C  0.45937480  0.83653069  0.44199403    -0.23600
H1872       H  0.42715882  0.82993006  0.41283745     0.15400
H1873       H  0.42981257  0.77036712  0.46788646     0.15400
C1874       C  0.39635137  0.76463677  0.43878163    -0.23500
H1875       H  0.46928486  0.83674453  0.42670945     0.05700
H1876       H  0.47085770  0.83631691  0.45625441     0.08900
H1877       H  0.44967682  0.85188446  0.44299087     0.08900
H1878       H  0.39706742  0.75647716  0.42248509     0.08900
H1879       H  0.37938465  0.77072347  0.44167968     0.08900
H1880       H  0.40007361  0.75224247  0.45160141     0.05600
C1881       C  0.43360084  0.57360936  0.12931982    -0.20200
C1882       C  0.42017698  0.57278227  0.14800453    -0.06700
C1883       C  0.42303661  0.55564629  0.16330497     0.14100
C1884       C  0.43940572  0.53984576  0.15960611    -0.20200
C1885       C  0.45288738  0.54076757  0.14099391    -0.06700
C1886       C  0.44980717  0.55768210  0.12552410     0.14100
C1887       C  0.46344913  0.55878692  0.10493956    -0.23600
H1888       H  0.43128831  0.58672817  0.11758426     0.15400
H1889       H  0.44202521  0.52690096  0.17147455     0.15400
C1890       C  0.40961245  0.55449765  0.18402355    -0.23500
H1891       H  0.45843080  0.57268966  0.09431511     0.05700
H1892       H  0.46134940  0.54350628  0.09532555     0.08900
H1893       H  0.48114643  0.56088280  0.10922995     0.08900
H1894       H  0.39194115  0.55204928  0.17988430     0.08900
H1895       H  0.41158850  0.56983355  0.19357574     0.08900
H1896       H  0.41490359  0.54071845  0.19468433     0.05600
C1897       C  0.33589087  0.92731875  0.08367376    -0.20200
C1898       C  0.35361861  0.92918810  0.06907460    -0.06700
C1899       C  0.37218135  0.91546720  0.07164525     0.14100
C1900       C  0.37224452  0.89961698  0.08827288    -0.20200
C1901       C  0.35448011  0.89760491  0.10281166    -0.06700
C1902       C  0.33613956  0.91174840  0.10062048     0.14100
C1903       C  0.31651515  0.90997945  0.11556279    -0.23600
H1904       H  0.32179071  0.93807657  0.08170831     0.15400
H1905       H  0.38634852  0.88884025  0.09009595     0.15400
C1906       C  0.39209034  0.91788064  0.05716834    -0.23500
H1907       H  0.30326387  0.92167633  0.11089199     0.05700
H1908       H  0.32153354  0.91362448  0.13275687     0.08900
H1909       H  0.30957669  0.89325199  0.11464182     0.08900
H1910       H  0.39873928  0.93468594  0.05870733     0.08900
H1911       H  0.38750085  0.91472154  0.03975634     0.08900
H1912       H  0.40540987  0.90625642  0.06181848     0.05600
C1913       C  0.09087163  0.90163341  0.37233778    -0.20200
C1914       C  0.09012190  0.88477910  0.35670739    -0.06700
C1915       C  0.07330710  0.88487686  0.34041170     0.14100
C1916       C  0.05798889  0.90209301  0.33994872    -0.20200
C1917       C  0.05882169  0.91894830  0.35555645    -0.06700
C1918       C  0.07519902  0.91847350  0.37226346     0.14100
C1919       C  0.07648234  0.93525395  0.39039626    -0.23600
H1920       H  0.10360626  0.90147328  0.38497674     0.15400
H1921       H  0.04535526  0.90256180  0.32722504     0.15400
C1922       C  0.07192198  0.86748358  0.32291326    -0.23500
H1923       H  0.09238710  0.94414206  0.38936759     0.05700
H1924       H  0.07561401  0.92695384  0.40658556     0.08900
H1925       H  0.06287776  0.94734152  0.38975184     0.08900
H1926       H  0.06792837  0.85153505  0.33042109     0.08900
H1927       H  0.08785249  0.86632361  0.31408585     0.08900
H1928       H  0.05877940  0.87111219  0.31060327     0.05600
C1929       C  0.09783778  0.66984942  0.08652435    -0.20200
C1930       C  0.09603309  0.65086431  0.09928763    -0.06700
C1931       C  0.07846790  0.63625390  0.09499952     0.14100
C1932       C  0.06299964  0.64121359  0.07840027    -0.20200
C1933       C  0.06449776  0.66043187  0.06598920    -0.06700
C1934       C  0.08216594  0.67497197  0.07012646     0.14100
C1935       C  0.08477095  0.69615375  0.05789253    -0.23600
H1936       H  0.11137100  0.68100669  0.08966039     0.15400
H1937       H  0.04954476  0.63002944  0.07504567     0.15400
C1938       C  0.07638255  0.61500043  0.10721854    -0.23500
H1939       H  0.08478067  0.70991815  0.06978796     0.05700
H1940       H  0.07135049  0.69916682  0.04578554     0.08900
H1941       H  0.10069629  0.69605223  0.04898175     0.08900
H1942       H  0.07305887  0.61812306  0.12483818     0.08900
H1943       H  0.09184235  0.60539301  0.10558585     0.08900
H1944       H  0.06257372  0.60495027  0.10067460     0.05600
C1945       C  0.57742345  0.83821213  0.59671009    -0.20200
C1946       C  0.59105754  0.82110360  0.60398735    -0.06700
C1947       C  0.58865793  0.80011096  0.59458495     0.14100
C1948       C  0.57264595  0.79679713  0.57809488    -0.20200
C1949       C  0.55905259  0.81392401  0.57093476    -0.06700
C1950       C  0.56152829  0.83489415  0.58017748     0.14100
C1951       C  0.54738058  0.85370487  0.57256617    -0.23600
H1952       H  0.57927086  0.85426879  0.60398626     0.15400
H1953       H  0.57049200  0.78074194  0.57090547     0.15400
C1954       C  0.60217763  0.78098264  0.60250662    -0.23500
H1955       H  0.55150996  0.86901203  0.58147477     0.05700
H1956       H  0.52972009  0.84998781  0.57547508     0.08900
H1957       H  0.54990330  0.85653338  0.55473035     0.08900
H1958       H  0.59998668  0.77884002  0.62048960     0.08900
H1959       H  0.61986596  0.78366725  0.59891214     0.08900
H1960       H  0.59714739  0.76558263  0.59424138     0.05600
C1961       C  0.57484269  0.58104871  0.86932026    -0.20200
C1962       C  0.58360713  0.59230064  0.85131798    -0.06700
C1963       C  0.57690765  0.58647459  0.82982208     0.14100
C1964       C  0.56247888  0.56878244  0.82673855    -0.20200
C1965       C  0.55451759  0.55679976  0.84466773    -0.06700
C1966       C  0.56017254  0.56350617  0.86627503     0.14100
C1967       C  0.55106309  0.55249598  0.88637259    -0.23600
H1968       H  0.57972971  0.58576367  0.88585030     0.15400
H1969       H  0.55805858  0.56371403  0.81019026     0.15400
C1970       C  0.58552506  0.59852603  0.81011965    -0.23500
H1971       H  0.54219313  0.56469565  0.89655818     0.05700
H1972       H  0.56481518  0.54543269  0.89622962     0.08900
H1973       H  0.53927173  0.53926702  0.88227980     0.08900
H1974       H  0.60379746  0.59723916  0.80964491     0.08900
H1975       H  0.58072925  0.61598413  0.81116692     0.08900
H1976       H  0.57878379  0.59180257  0.79448114     0.05600
C1977       C  0.83346253  0.58099327  0.58404827    -0.20200
C1978       C  0.85099728  0.58077714  0.59927522    -0.06700
C1979       C  0.86761468  0.56463924  0.59743564     0.14100
C1980       C  0.86618144  0.54910632  0.58047828    -0.20200
C1981       C  0.84830637  0.54893218  0.56564767    -0.06700
C1982       C  0.83168136  0.56504113  0.56750165     0.14100
C1983       C  0.81162907  0.56494498  0.55266132    -0.23600
H1984       H  0.82074829  0.59336735  0.58552267     0.15400
H1985       H  0.87889766  0.53673927  0.57894621     0.15400
C1986       C  0.88717700  0.56400255  0.61288683    -0.23500
H1987       H  0.79980519  0.57807741  0.55708989     0.05700
H1988       H  0.80296956  0.54907293  0.55407013     0.08900
H1989       H  0.81649468  0.56753402  0.53532897     0.08900
H1990       H  0.88169139  0.56041423  0.62984112     0.08900
H1991       H  0.89586662  0.57992158  0.61262059     0.08900
H1992       H  0.89917566  0.55112065  0.60817855     0.05600
C1993       C  0.91163243  0.67515186  0.93604805    -0.20200
C1994       C  0.91245028  0.65624528  0.92302645    -0.06700
C1995       C  0.93009516  0.64135871  0.92601085     0.14100
C1996       C  0.94649900  0.64586437  0.94183091    -0.20200
C1997       C  0.94579523  0.66488744  0.95467955    -0.06700
C1998       C  0.92818746  0.67980013  0.95165999     0.14100
C1999       C  0.92649942  0.70083701  0.96438691    -0.23600
H2000       H  0.89815564  0.68661225  0.93374088     0.15400
H2001       H  0.95991158  0.63438407  0.94438413     0.15400
C2002       C  0.93127247  0.62030752  0.91323826    -0.23500
H2003       H  0.92614408  0.71477692  0.95274677     0.05700
H2004       H  0.94053043  0.70338927  0.97590033     0.08900
H2005       H  0.91102396  0.70090449  0.97404563     0.08900
H2006       H  0.93331413  0.62371757  0.89547880     0.08900
H2007       H  0.91593934  0.61077389  0.91574661     0.08900
H2008       H  0.94547761  0.61007549  0.91860320     0.05600
C2009       C  0.62668053  0.92667784  0.92719547    -0.20200
C2010       C  0.64483635  0.91262141  0.92498175    -0.06700
C2011       C  0.66329980  0.91509639  0.93914413     0.14100
C2012       C  0.66301099  0.93149657  0.95528289    -0.20200
C2013       C  0.64478274  0.94541252  0.95752164    -0.06700
C2014       C  0.62630922  0.94291741  0.94340930     0.14100
C2015       C  0.60591979  0.95695274  0.94509077    -0.23600
H2016       H  0.61252649  0.92481621  0.91632280     0.15400
H2017       H  0.67715280  0.93367583  0.96609712     0.15400
C2018       C  0.68369785  0.90122651  0.93672112    -0.23500
H2019       H  0.60340458  0.96599066  0.92945552     0.05700
H2020       H  0.60680180  0.96899124  0.95867984     0.08900
H2021       H  0.59133839  0.94643275  0.94799813     0.08900
H2022       H  0.69004643  0.90255018  0.91969314     0.08900
H2023       H  0.67988022  0.88396345  0.94043303     0.08900
H2024       H  0.69703931  0.90643984  0.94820085     0.05600
C2025       C  0.92854079  0.90182870  0.66677520    -0.20200
C2026       C  0.91088590  0.90227341  0.68161048    -0.06700
C2027       C  0.91088867  0.91816767  0.69857260     0.14100
C2028       C  0.92866313  0.93286826  0.70037086    -0.20200
C2029       C  0.94613744  0.93251716  0.68532353    -0.06700
C2030       C  0.94593808  0.91687895  0.66819734     0.14100
C2031       C  0.96368416  0.91642040  0.65093862    -0.23600
H2032       H  0.92854520  0.88978535  0.65370139     0.15400
H2033       H  0.92881297  0.94497398  0.71338737     0.15400
C2034       C  0.89262699  0.91942916  0.71519269    -0.23500
H2035       H  0.96031068  0.90390420  0.63812554     0.05700
H2036       H  0.97991432  0.91250278  0.65850340     0.08900
H2037       H  0.96460693  0.93254194  0.64271100     0.08900
H2038       H  0.89053856  0.90336584  0.72330393     0.08900
H2039       H  0.87698838  0.92435947  0.70702435     0.08900
H2040       H  0.89620568  0.93171510  0.72818200     0.05600
C2041       C  0.42582334  0.81985276  0.60209678    -0.20200
C2042       C  0.41134123  0.80210167  0.60342911    -0.06700
C2043       C  0.41392838  0.78426288  0.58896418     0.14100
C2044       C  0.43091655  0.78471046  0.57336552    -0.20200
C2045       C  0.44519786  0.80265523  0.57180173    -0.06700
C2046       C  0.44246247  0.82057021  0.58624309     0.14100
C2047       C  0.45635769  0.84090575  0.58509827    -0.23600
H2048       H  0.42373922  0.83359553  0.61315151     0.15400
H2049       H  0.43308697  0.77102881  0.56226492     0.15400
C2050       C  0.39922338  0.76455148  0.59036344    -0.23500
H2051       H  0.44547726  0.85529580  0.58255127     0.05700
H2052       H  0.46837721  0.84063798  0.57147645     0.08900
H2053       H  0.46560121  0.84299499  0.60080397     0.08900
H2054       H  0.38185289  0.76928654  0.58694961     0.08900
H2055       H  0.40044516  0.75735700  0.60708059     0.08900
H2056       H  0.40395861  0.75181784  0.57825425     0.05600
C2057       C  0.18931646  0.55643136  0.60247158    -0.20200
C2058       C  0.17012542  0.56919371  0.60360811    -0.06700
C2059       C  0.15232280  0.56474983  0.58910800     0.14100
C2060       C  0.15416260  0.54757440  0.57386111    -0.20200
C2061       C  0.17349704  0.53498758  0.57251434    -0.06700
C2062       C  0.19139559  0.53965385  0.58683422     0.14100
C2063       C  0.21297331  0.52751759  0.58512416    -0.23600
H2064       H  0.20296093  0.55998784  0.61354230     0.15400
H2065       H  0.14053229  0.54401212  0.56277536     0.15400
C2066       C  0.13119743  0.57771541  0.59001853    -0.23500
H2067       H  0.22549585  0.53392836  0.59689313     0.05700
H2068       H  0.21961197  0.52925377  0.56824928     0.08900
H2069       H  0.21059463  0.50998457  0.58879679     0.08900
H2070       H  0.13445696  0.59502617  0.58592641     0.08900
H2071       H  0.12410133  0.57669958  0.60676662     0.08900
H2072       H  0.11870266  0.57149869  0.57810999     0.05600
C2073       C  0.44767248  0.55054229  0.86673777    -0.20200
C2074       C  0.45031814  0.54506078  0.84450747    -0.06700
C2075       C  0.43675329  0.55509872  0.82841858     0.14100
C2076       C  0.42072150  0.57031647  0.83493965    -0.20200
C2077       C  0.41812775  0.57585505  0.85713101    -0.06700
C2078       C  0.43180139  0.56599869  0.87321901     0.14100
C2079       C  0.42933252  0.57151810  0.89721559    -0.23600
H2080       H  0.45792560  0.54256332  0.87901669     0.15400
H2081       H  0.41023299  0.57802970  0.82267783     0.15400
C2082       C  0.43895121  0.54945216  0.80440505    -0.23500
H2083       H  0.44107160  0.56211115  0.90765789     0.05700
H2084       H  0.41230437  0.56768080  0.90258924     0.08900
H2085       H  0.43256505  0.58914768  0.89986078     0.08900
H2086       H  0.43609364  0.53172817  0.80194047     0.08900
H2087       H  0.45576270  0.55366484  0.79868884     0.08900
H2088       H  0.42684230  0.55851591  0.79407246     0.05600
C2089       C  0.07665590  0.64693705  0.92123425    -0.20200
C2090       C  0.09226293  0.66359462  0.91872135    -0.06700
C2091       C  0.09071999  0.68261116  0.93179518     0.14100
C2092       C  0.07415362  0.68408210  0.94774612    -0.20200
C2093       C  0.05914553  0.66702094  0.95087416    -0.06700
C2094       C  0.06024293  0.64827607  0.93731580     0.14100
C2095       C  0.04482743  0.62916640  0.93975363    -0.23600
H2096       H  0.07776347  0.63240404  0.91110330     0.15400
H2097       H  0.07301755  0.69849311  0.95803730     0.15400
C2098       C  0.10610723  0.70158994  0.92858447    -0.23500
H2099       H  0.05457296  0.61419743  0.94327417     0.05700
H2100       H  0.03542406  0.62677312  0.92418815     0.08900
H2101       H  0.03281651  0.63126166  0.95323726     0.08900
H2102       H  0.10509359  0.70726344  0.91126737     0.08900
H2103       H  0.12331269  0.69669654  0.93249902     0.08900
H2104       H  0.10181539  0.71554042  0.93943192     0.05600
C2105       C  0.07492898  0.92212977  0.70494606    -0.20200
C2106       C  0.05986877  0.92542573  0.68757608    -0.06700
C2107       C  0.06025730  0.91115376  0.66929976     0.14100
C2108       C  0.07549799  0.89383064  0.66887991    -0.20200
C2109       C  0.09083356  0.89073309  0.68600999    -0.06700
C2110       C  0.09049709  0.90501802  0.70432082     0.14100
C2111       C  0.10620910  0.90196368  0.72339498    -0.23600
H2112       H  0.07459784  0.93312183  0.71892223     0.15400
H2113       H  0.07589688  0.88300651  0.65477100     0.15400
C2114       C  0.04502751  0.91462894  0.64990124    -0.23500
H2115       H  0.10320847  0.91407544  0.73665467     0.05700
H2116       H  0.12347316  0.90395873  0.71782703     0.08900
H2117       H  0.10412377  0.88539833  0.73042767     0.08900
H2118       H  0.04779264  0.93109498  0.64286463     0.08900
H2119       H  0.02758938  0.91323686  0.65514092     0.08900
H2120       H  0.04789021  0.90239275  0.63673229     0.05600
C2121       C  0.36737559  0.90057122  0.93252840    -0.20200
C2122       C  0.34773502  0.89718776  0.92065309    -0.06700
C2123       C  0.32894460  0.90992382  0.92542341     0.14100
C2124       C  0.33024402  0.92577015  0.94207657    -0.20200
C2125       C  0.34988893  0.92912717  0.95398203    -0.06700
C2126       C  0.36877905  0.91654789  0.94900499     0.14100
C2127       C  0.39064621  0.91969459  0.96055281    -0.23600
H2128       H  0.38178452  0.89074604  0.92881285     0.15400
H2129       H  0.31584462  0.93551950  0.94598364     0.15400
C2130       C  0.30738725  0.90633681  0.91347482    -0.23500
H2131       H  0.40341087  0.92397822  0.94829182     0.05700
H2132       H  0.39554987  0.90430418  0.96887711     0.08900
H2133       H  0.39027786  0.93283819  0.97308026     0.08900
H2134       H  0.30187438  0.88924268  0.91582924     0.08900
H2135       H  0.30948181  0.90951998  0.89565422     0.08900
H2136       H  0.29422368  0.91735392  0.91963652     0.05600
C2137       C  0.20480707  0.41824334  0.58565930    -0.20200
C2138       C  0.18597157  0.42101084  0.57237464    -0.06700
C2139       C  0.16823107  0.40622034  0.57427675     0.14100
C2140       C  0.16956588  0.38920867  0.58968529    -0.20200
C2141       C  0.18820555  0.38665834  0.60327767    -0.06700
C2142       C  0.20616969  0.40114835  0.60104188     0.14100
C2143       C  0.22704825  0.39812717  0.61430942    -0.23600
H2144       H  0.21853592  0.42937570  0.58380134     0.15400
H2145       H  0.15585446  0.37802076  0.59137800     0.15400
C2146       C  0.14779620  0.40854975  0.56017672    -0.23500
H2147       H  0.23977550  0.41033630  0.60988876     0.05700
H2148       H  0.23396073  0.38161951  0.61121345     0.08900
H2149       H  0.22353760  0.39996193  0.63209086     0.08900
H2150       H  0.15210637  0.40681531  0.54255046     0.08900
H2151       H  0.14023237  0.42483132  0.56291788     0.08900
H2152       H  0.13530529  0.39593558  0.56409181     0.05600
C2153       C  0.42494140  0.10947681  0.58885772    -0.20200
C2154       C  0.42763496  0.12679493  0.60378464    -0.06700
C2155       C  0.44621282  0.14061082  0.60182298     0.14100
C2156       C  0.46137680  0.13686491  0.58483518    -0.20200
C2157       C  0.45859575  0.11956016  0.56995184    -0.06700
C2158       C  0.44031887  0.10546755  0.57220390     0.14100
C2159       C  0.43669986  0.08588304  0.55759260    -0.23600
H2160       H  0.41086815  0.09870686  0.59041807     0.15400
H2161       H  0.47547426  0.14755785  0.58303239     0.15400
C2162       C  0.44975734  0.15979693  0.61695508    -0.23500
H2163       H  0.42080427  0.08770191  0.54856168     0.05700
H2164       H  0.43601891  0.07093707  0.56785767     0.08900
H2165       H  0.44996818  0.08351591  0.54538066     0.08900
H2166       H  0.45294924  0.15407598  0.63396068     0.08900
H2167       H  0.43498468  0.17054074  0.61665423     0.08900
H2168       H  0.46420850  0.16969573  0.61196655     0.05600
C2169       C  0.42664687  0.40802818  0.82674474    -0.20200
C2170       C  0.42772747  0.39452623  0.84534738    -0.06700
C2171       C  0.44401813  0.39855913  0.86163056     0.14100
C2172       C  0.45849245  0.41625209  0.85910616    -0.20200
C2173       C  0.45721852  0.42992986  0.84065197    -0.06700
C2174       C  0.44143763  0.42541581  0.82397144     0.14100
C2175       C  0.43988747  0.43843518  0.80300578    -0.23600
H2176       H  0.41421842  0.40490300  0.81420127     0.15400
H2177       H  0.47066502  0.41971789  0.87179794     0.15400
C2178       C  0.44557434  0.38489892  0.88216049    -0.23500
H2179       H  0.44195480  0.42735706  0.78869428     0.05700
H2180       H  0.45269288  0.45124932  0.80184979     0.08900
H2181       H  0.42343161  0.44637111  0.80186650     0.08900
H2182       H  0.44981504  0.36783127  0.87782826     0.08900
H2183       H  0.42957106  0.38524896  0.89093013     0.08900
H2184       H  0.45854185  0.39100318  0.89361442     0.05600
C2185       C  0.32274882  0.04359929  0.94055862    -0.20200
C2186       C  0.34084458  0.04224742  0.95504639    -0.06700
C2187       C  0.35801778  0.05770032  0.95363830     0.14100
C2188       C  0.35653040  0.07443337  0.93801085    -0.20200
C2189       C  0.33856949  0.07573948  0.92339923    -0.06700
C2190       C  0.32150402  0.06011743  0.92457435     0.14100
C2191       C  0.30186924  0.06109435  0.90926029    -0.23600
H2192       H  0.30966247  0.03163879  0.94173799     0.15400
H2193       H  0.36973896  0.08625995  0.93678939     0.15400
C2194       C  0.37819613  0.05617185  0.96822488    -0.23500
H2195       H  0.28979604  0.04797338  0.91280115     0.05700
H2196       H  0.30732998  0.05914247  0.89199095     0.08900
H2197       H  0.29336540  0.07704711  0.91110149     0.08900
H2198       H  0.38635931  0.04011751  0.96581350     0.08900
H2199       H  0.37347883  0.05794509  0.98573051     0.08900
H2200       H  0.39036185  0.06913141  0.96443972     0.05600
C2201       C  0.08002288  0.04212222  0.70088674    -0.20200
C2202       C  0.06738220  0.03925202  0.68165189    -0.06700
C2203       C  0.07197227  0.05209360  0.66292426     0.14100
C2204       C  0.08888693  0.06767676  0.66405187    -0.20200
C2205       C  0.10161908  0.07040227  0.68322553    -0.06700
C2206       C  0.09713759  0.05752673  0.70187415     0.14100
C2207       C  0.10998101  0.06046815  0.72297394    -0.23600
H2208       H  0.07632575  0.03235101  0.71523205     0.15400
H2209       H  0.09241077  0.07754652  0.64971950     0.15400
C2210       C  0.05957016  0.04960596  0.64148130    -0.23500
H2211       H  0.10398772  0.04945555  0.73611951     0.05700
H2212       H  0.10826455  0.07754934  0.72883600     0.08900
H2213       H  0.12768438  0.05680829  0.72019410     0.08900
H2214       H  0.05119894  0.06520935  0.63732786     0.08900
H2215       H  0.04692116  0.03659097  0.64192834     0.08900
H2216       H  0.07135217  0.04547097  0.62820208     0.05600
C2217       C  0.09244033  0.35274933  0.92543419    -0.20200
C2218       C  0.10516391  0.33359979  0.92617091    -0.06700
C2219       C  0.10185986  0.31851455  0.94339534     0.14100
C2220       C  0.08569532  0.32284450  0.95930039    -0.20200
C2221       C  0.07294710  0.34196219  0.95848413    -0.06700
C2222       C  0.07654649  0.35723089  0.94152518     0.14100
C2223       C  0.06388404  0.37838770  0.94063104    -0.23600
H2224       H  0.09516892  0.36439068  0.91233753     0.15400
H2225       H  0.08286103  0.31123070  0.97239721     0.15400
C2226       C  0.11481887  0.29755424  0.94465446    -0.23500
H2227       H  0.06914417  0.38871585  0.92663210     0.05700
H2228       H  0.06670332  0.38770334  0.95607563     0.08900
H2229       H  0.04597882  0.37510586  0.93865437     0.08900
H2230       H  0.13262016  0.30113763  0.94696594     0.08900
H2231       H  0.11241217  0.28805925  0.92925610     0.08900
H2232       H  0.10948990  0.28725789  0.95865340     0.05600
C2233       C  0.59467948  0.07566872  0.59003577    -0.20200
C2234       C  0.60524157  0.09429577  0.59828243    -0.06700
C2235       C  0.59869020  0.11515995  0.59089987     0.14100
C2236       C  0.58152870  0.11692106  0.57543210    -0.20200
C2237       C  0.57110022  0.09829672  0.56697158    -0.06700
C2238       C  0.57779505  0.07738087  0.57421693     0.14100
C2239       C  0.56756226  0.05665362  0.56557200    -0.23600
H2240       H  0.59974755  0.05969971  0.59585402     0.15400
H2241       H  0.57633953  0.13287285  0.56967690     0.15400
C2242       C  0.60966116  0.13554478  0.59945908    -0.23500
H2243       H  0.56004284  0.04753522  0.57937317     0.05700
H2244       H  0.58052522  0.04634922  0.55796003     0.08900
H2245       H  0.55455231  0.05960544  0.55300125     0.08900
H2246       H  0.62747434  0.13527411  0.59534191     0.08900
H2247       H  0.60780815  0.13653335  0.61758581     0.08900
H2248       H  0.60228820  0.15049131  0.59213253     0.05600
C2249       C  0.87167402  0.41397494  0.59669033    -0.20200
C2250       C  0.85195593  0.40362286  0.60248707    -0.06700
C2251       C  0.83208107  0.40933297  0.59171720     0.14100
C2252       C  0.83237290  0.42530249  0.57523353    -0.20200
C2253       C  0.85208948  0.43561418  0.56934301    -0.06700
C2254       C  0.87202882  0.42988247  0.58013795     0.14100
C2255       C  0.89386735  0.44008636  0.57450278    -0.23600
H2256       H  0.88690937  0.40950334  0.60503225     0.15400
H2257       H  0.81716337  0.42983691  0.56689323     0.15400
C2258       C  0.81056619  0.39881306  0.59786449    -0.23500
H2259       H  0.90546226  0.42721286  0.56888871     0.05700
H2260       H  0.90091791  0.44814180  0.58933388     0.08900
H2261       H  0.89249884  0.45248898  0.56131736     0.08900
H2262       H  0.80713869  0.40188230  0.61551797     0.08900
H2263       H  0.81152743  0.38095965  0.59495311     0.08900
H2264       H  0.79653721  0.40538038  0.58801839     0.05600
C2265       C  0.58823072  0.40937016  0.85797411    -0.20200
C2266       C  0.60368216  0.40909513  0.84094200    -0.06700
C2267       C  0.60307656  0.42570264  0.82484654     0.14100
C2268       C  0.58669012  0.44194446  0.82595849    -0.20200
C2269       C  0.57108297  0.44210224  0.84291173    -0.06700
C2270       C  0.57219301  0.42582626  0.85939673     0.14100
C2271       C  0.55673772  0.42531579  0.87870240    -0.23600
H2272       H  0.58887254  0.39678698  0.87048302     0.15400
H2273       H  0.58564903  0.45427098  0.81322784     0.15400
C2274       C  0.61901695  0.42577993  0.80595882    -0.23500
H2275       H  0.56649129  0.42554544  0.89424275     0.05700
H2276       H  0.54678372  0.41013611  0.87809408     0.08900
H2277       H  0.54531752  0.43944659  0.87913390     0.08900
H2278       H  0.61769237  0.41021340  0.79668150     0.08900
H2279       H  0.63613870  0.42774364  0.81221905     0.08900
H2280       H  0.61558793  0.43938194  0.79436959     0.05600
C2281       C  0.93969881  0.35852582  0.92552441    -0.20200
C2282       C  0.92387317  0.34202677  0.92786373    -0.06700
C2283       C  0.92496181  0.32808321  0.94635651     0.14100
C2284       C  0.94216706  0.33074426  0.96174847    -0.20200
C2285       C  0.95800009  0.34722250  0.95932273    -0.06700
C2286       C  0.95646549  0.36160529  0.94122374     0.14100
C2287       C  0.97192899  0.38057407  0.93815867    -0.23600
H2288       H  0.93870893  0.36943476  0.91152559     0.15400
H2289       H  0.94336040  0.31989164  0.97577238     0.15400
C2290       C  0.90858741  0.30992468  0.94957778    -0.23500
H2291       H  0.98110198  0.37847630  0.92256014     0.05700
H2292       H  0.98408403  0.38235502  0.95174777     0.08900
H2293       H  0.96223442  0.39594762  0.93729745     0.08900
H2294       H  0.90838964  0.29910351  0.93491790     0.08900
H2295       H  0.89186702  0.31675474  0.95222001     0.08900
H2296       H  0.91280741  0.29981877  0.96417191     0.05600
C2297       C  0.93217997  0.07139229  0.65194407    -0.20200
C2298       C  0.92295139  0.08173948  0.67030430    -0.06700
C2299       C  0.92868388  0.07449276  0.69163924     0.14100
C2300       C  0.94342844  0.05690347  0.69414924    -0.20200
C2301       C  0.95274591  0.04660594  0.67579303    -0.06700
C2302       C  0.94720507  0.05403570  0.65445803     0.14100
C2303       C  0.95721333  0.04363871  0.63440421    -0.23600
H2304       H  0.92766244  0.07697800  0.63560553     0.15400
H2305       H  0.94781317  0.05118779  0.71047190     0.15400
C2306       C  0.91894120  0.08509269  0.71171366    -0.23500
H2307       H  0.95125142  0.05146620  0.61899553     0.05700
H2308       H  0.95278520  0.02609108  0.63372018     0.08900
H2309       H  0.97545912  0.04522316  0.63513614     0.08900
H2310       H  0.90067121  0.08375015  0.71111767     0.08900
H2311       H  0.92363659  0.10257734  0.71228605     0.08900
H2312       H  0.92490827  0.07725778  0.72711556     0.05600
C2313       C  0.66265839  0.08696749  0.93372065    -0.20200
C2314       C  0.64487577  0.08753548  0.91876545    -0.06700
C2315       C  0.62670499  0.07339260  0.92191449     0.14100
C2316       C  0.62708112  0.05876553  0.93962473    -0.20200
C2317       C  0.64503268  0.05797168  0.95424354    -0.06700
C2318       C  0.66299430  0.07224520  0.95137601     0.14100
C2319       C  0.68258125  0.07169154  0.96677291    -0.23600
H2320       H  0.67646565  0.09792343  0.93141442     0.15400
H2321       H  0.61332331  0.04778828  0.94211875     0.15400
C2322       C  0.60645108  0.07415446  0.90736446    -0.23500
H2323       H  0.69534218  0.08374210  0.96202289     0.05700
H2324       H  0.69020495  0.05520722  0.96651917     0.08900
H2325       H  0.67723104  0.07554693  0.98376305     0.08900
H2326       H  0.61043189  0.06830137  0.89062016     0.08900
H2327       H  0.59990961  0.09107019  0.90659470     0.08900
H2328       H  0.59312625  0.06350544  0.91368723     0.05600
loop_ 
_geom_bond_atom_site_label_1 
_geom_bond_atom_site_label_2 
_geom_bond_distance 
_geom_bond_site_symmetry_2 
_ccdc_geom_bond_type 
N1            N2   1.322       .  A
N1            C5   1.347       .  A
N1           Cu9   2.080       .  S
N2            C3   1.343       .  A
N2           Cu8   2.065       .  S
C3            C4   1.379       .  A
C3            H6   1.082       .  S
C4            C5   1.384       .  A
C4           C86   1.468       .  S
C5            H7   1.082       .  S
Cu8          N11   2.065       .  S
Cu9          N19   2.081       .  S
Cu10         N12   2.066       .  S
Cu10         N18   2.068       .  S
N11          N12   1.321       .  A
N11          C15   1.341       .  A
N12          C13   1.346       .  A
C13          C14   1.382       .  A
C13          H16   1.082       .  S
C14          C15   1.380       .  A
C14         C134   1.462       .  S
C15          H17   1.082       .  S
N18          N19   1.323       .  A
N18          C22   1.343       .  A
N19          C20   1.346       .  A
C20          C21   1.384       .  A
C20          H23   1.082       .  S
C21          C22   1.382       .  A
C21        C2314   1.480       .  S
C22          H24   1.080       .  S
N25          N26   1.322       .  A
N25          C29   1.348       .  A
N25         Cu33   2.089       .  S
N26          C27   1.342       .  A
N26         Cu32   2.057       .  S
C27          C28   1.378       .  A
C27          H30   1.082       .  S
C28          C29   1.385       .  A
C28         C110   1.466       .  S
C29          H31   1.082       .  S
Cu32         N35   2.057       .  S
Cu33         N43   2.091       .  S
Cu34         N36   2.081       .  S
Cu34         N42   2.082       .  S
N35          N36   1.321       .  A
N35          C39   1.342       .  A
N36          C37   1.347       .  A
C37          C38   1.384       .  A
C37          H40   1.082       .  S
C38          C39   1.379       .  A
C38         C124   1.463       .  S
C39          H41   1.082       .  S
N42          N43   1.325       .  A
N42          C46   1.346       .  A
N43          C44   1.349       .  A
C44          C45   1.384       .  A
C44          H47   1.082       .  S
C45          C46   1.381       .  A
C45        C2298   1.479       .  S
C46          H48   1.082       .  S
N49          N50   1.322       .  A
N49          C53   1.346       .  A
N49         Cu57   2.071       .  S
N50          C51   1.343       .  A
N50         Cu56   2.071       .  S
C51          C52   1.381       .  A
C51          H54   1.082       .  S
C52          C53   1.382       .  A
C52          C76   1.467       .  S
C53          H55   1.082       .  S
Cu56         N59   2.072       .  S
Cu57         N67   2.071       .  S
Cu58         N60   2.076       .  S
Cu58         N66   2.076       .  S
N59          N60   1.322       .  A
N59          C63   1.345       .  A
N60          C61   1.346       .  A
C61          C62   1.383       .  A
C61          H64   1.082       .  S
C62          C63   1.382       .  A
C62         C100   1.469       .  S
C63          H65   1.082       .  S
N66          N67   1.322       .  A
N66          C70   1.344       .  A
N67          C68   1.345       .  A
C68          C69   1.384       .  A
C68          H71   1.081       .  S
C69          C70   1.384       .  A
C69        C2282   1.480       .  S
C70          H72   1.082       .  S
N73          N74   1.322       .  A
N73          C77   1.343       .  A
N73         Cu81   2.068       .  S
N74          C75   1.346       .  A
N74         Cu80   2.075       .  S
C75          C76   1.383       .  A
C75          H78   1.082       .  S
C76          C77   1.380       .  A
C77          H79   1.082       .  S
Cu80         N83   2.074       .  S
Cu81         N91   2.068       .  S
Cu82         N84   2.082       .  S
Cu82         N90   2.082       .  S
N83          N84   1.324       .  A
N83          C87   1.346       .  A
N84          C85   1.346       .  A
C85          C86   1.383       .  A
C85          H88   1.082       .  S
C86          C87   1.381       .  A
C87          H89   1.082       .  S
N90          N91   1.322       .  A
N90          C94   1.347       .  A
N91          C92   1.345       .  A
C92          C93   1.382       .  A
C92          H95   1.082       .  S
C93          C94   1.386       .  A
C93        C2266   1.480       .  S
C94          H96   1.082       .  S
N97          N98   1.322       .  A
N97         C101   1.345       .  A
N97        Cu105   2.073       .  S
N98          C99   1.345       .  A
N98        Cu104   2.072       .  S
C99         C100   1.382       .  A
C99         H102   1.082       .  S
C100        C101   1.383       .  A
C101        H103   1.082       .  S
Cu104       N107   2.070       .  S
Cu105       N115   2.073       .  S
Cu106       N108   2.078       .  S
Cu106       N114   2.077       .  S
N107        N108   1.323       .  A
N107        C111   1.345       .  A
N108        C109   1.345       .  A
C109        C110   1.384       .  A
C109        H112   1.082       .  S
C110        C111   1.380       .  A
C111        H113   1.082       .  S
N114        N115   1.323       .  A
N114        C118   1.346       .  A
N115        C116   1.345       .  A
C116        C117   1.380       .  A
C116        H119   1.082       .  S
C117        C118   1.382       .  A
C117       C2250   1.472       .  S
C118        H120   1.082       .  S
N121        N122   1.321       .  A
N121        C125   1.348       .  A
N121       Cu129   2.078       .  S
N122        C123   1.341       .  A
N122       Cu128   2.057       .  S
C123        C124   1.377       .  A
C123        H126   1.082       .  S
C124        C125   1.384       .  A
C125        H127   1.082       .  S
Cu128       N131   2.057       .  S
Cu129       N139   2.079       .  S
Cu130       N132   2.072       .  S
Cu130       N138   2.073       .  S
N131        N132   1.321       .  A
N131        C135   1.340       .  A
N132        C133   1.348       .  A
C133        C134   1.383       .  A
C133        H136   1.082       .  S
C134        C135   1.377       .  A
C135        H137   1.082       .  S
N138        N139   1.325       .  A
N138        C142   1.344       .  A
N139        C140   1.345       .  A
C140        C141   1.381       .  A
C140        H143   1.082       .  S
C141        C142   1.379       .  A
C141       C2234   1.469       .  S
C142        H144   1.082       .  S
N145        N146   1.322       .  A
N145        C149   1.345       .  A
N145       Cu153   2.075       .  S
N146        C147   1.345       .  A
N146       Cu152   2.071       .  S
C147        C148   1.382       .  A
C147        H150   1.082       .  S
C148        C149   1.383       .  A
C148        C220   1.469       .  S
C149        H151   1.082       .  S
Cu152       N155   2.070       .  S
Cu153       N163   2.075       .  S
Cu154       N156   2.087       .  S
Cu154       N162   2.087       .  S
N155        N156   1.322       .  A
N155        C159   1.343       .  A
N156        C157   1.349       .  A
C157        C158   1.387       .  A
C157        H160   1.082       .  S
C158        C159   1.381       .  A
C158        C268   1.473       .  S
C159        H161   1.082       .  S
N162        N163   1.323       .  A
N162        C166   1.346       .  A
N163        C164   1.346       .  A
C164        C165   1.384       .  A
C164        H167   1.082       .  S
C165        C166   1.385       .  A
C165       C2218   1.481       .  S
C166        H168   1.082       .  S
N169        N170   1.322       .  A
N169        C173   1.345       .  A
N169       Cu177   2.072       .  S
N170        C171   1.346       .  A
N170       Cu176   2.077       .  S
C171        C172   1.384       .  A
C171        H174   1.082       .  S
C172        C173   1.382       .  A
C172        C278   1.471       .  S
C173        H175   1.082       .  S
Cu176       N179   2.076       .  S
Cu177       N187   2.072       .  S
Cu178       N180   2.086       .  S
Cu178       N186   2.085       .  S
N179        N180   1.323       .  A
N179        C183   1.345       .  A
N180        C181   1.347       .  A
C181        C182   1.385       .  A
C181        H184   1.082       .  S
C182        C183   1.382       .  A
C182        C244   1.472       .  S
C183        H185   1.082       .  S
N186        N187   1.323       .  A
N186        C190   1.347       .  A
N187        C188   1.345       .  A
C188        C189   1.382       .  A
C188        H191   1.082       .  S
C189        C190   1.384       .  A
C189       C2205   1.477       .  S
C190        H192   1.082       .  S
N193        N194   1.324       .  A
N193        C197   1.347       .  A
N193       Cu201   2.089       .  S
N194        C195   1.346       .  A
N194       Cu200   2.077       .  S
C195        C196   1.382       .  A
C195        H198   1.082       .  S
C196        C197   1.385       .  A
C196        C230   1.474       .  S
C197        H199   1.082       .  S
Cu200       N203   2.076       .  S
Cu201       N211   2.087       .  S
Cu202       N204   2.065       .  S
Cu202       N210   2.064       .  S
N203        N204   1.322       .  A
N203        C207   1.347       .  A
N204        C205   1.342       .  A
C205        C206   1.380       .  A
C205        H208   1.082       .  S
C206        C207   1.384       .  A
C206        C254   1.468       .  S
C207        H209   1.082       .  S
N210        N211   1.321       .  A
N210        C214   1.344       .  A
N211        C212   1.347       .  A
C212        C213   1.386       .  A
C212        H215   1.082       .  S
C213        C214   1.381       .  A
C213       C2189   1.476       .  S
C214        H216   1.082       .  S
N217        N218   1.322       .  A
N217        C221   1.347       .  A
N217       Cu225   2.079       .  S
N218        C219   1.343       .  A
N218       Cu224   2.067       .  S
C219        C220   1.380       .  A
C219        H222   1.082       .  S
C220        C221   1.384       .  A
C221        H223   1.082       .  S
Cu224       N227   2.068       .  S
Cu225       N235   2.079       .  S
Cu226       N228   2.092       .  S
Cu226       N234   2.092       .  S
N227        N228   1.322       .  A
N227        C231   1.345       .  A
N228        C229   1.348       .  A
C229        C230   1.387       .  A
C229        H232   1.082       .  S
C230        C231   1.381       .  A
C231        H233   1.082       .  S
N234        N235   1.324       .  A
N234        C238   1.348       .  A
N235        C236   1.346       .  A
C236        C237   1.382       .  A
C236        H239   1.082       .  S
C237        C238   1.387       .  A
C237       C2170   1.483       .  S
C238        H240   1.081       .  S
N241        N242   1.322       .  A
N241        C245   1.347       .  A
N241       Cu249   2.084       .  S
N242        C243   1.345       .  A
N242       Cu248   2.070       .  S
C243        C244   1.382       .  A
C243        H246   1.082       .  S
C244        C245   1.386       .  A
C245        H247   1.082       .  S
Cu248       N251   2.071       .  S
Cu249       N259   2.085       .  S
Cu250       N252   2.075       .  S
Cu250       N258   2.076       .  S
N251        N252   1.322       .  A
N251        C255   1.342       .  A
N252        C253   1.347       .  A
C253        C254   1.383       .  A
C253        H256   1.082       .  S
C254        C255   1.381       .  A
C255        H257   1.082       .  S
N258        N259   1.323       .  A
N258        C262   1.346       .  A
N259        C260   1.345       .  A
C260        C261   1.386       .  A
C260        H263   1.082       .  S
C261        C262   1.385       .  A
C261       C2154   1.484       .  S
C262        H264   1.081       .  S
N265        N266   1.323       .  A
N265        C269   1.344       .  A
N265       Cu273   2.079       .  S
N266        C267   1.348       .  A
N266       Cu272   2.079       .  S
C267        C268   1.384       .  A
C267        H270   1.082       .  S
C268        C269   1.383       .  A
C269        H271   1.082       .  S
Cu272       N275   2.079       .  S
Cu273       N283   2.079       .  S
Cu274       N276   2.080       .  S
Cu274       N282   2.081       .  S
N275        N276   1.324       .  A
N275        C279   1.345       .  A
N276        C277   1.347       .  A
C277        C278   1.383       .  A
C277        H280   1.082       .  S
C278        C279   1.382       .  A
C279        H281   1.082       .  S
N282        N283   1.322       .  A
N282        C286   1.347       .  A
N283        C284   1.346       .  A
C284        C285   1.384       .  A
C284        H287   1.082       .  S
C285        C286   1.385       .  A
C285       C2141   1.481       .  S
C286        H288   1.082       .  S
N289        N290   1.322       .  A
N289        C293   1.343       .  A
N289       Cu297   2.064       .  S
N290        C291   1.348       .  A
N290       Cu296   2.081       .  S
C291        C292   1.385       .  A
C291        H294   1.082       .  S
C292        C293   1.379       .  A
C292        C374   1.468       .  S
C293        H295   1.082       .  S
Cu296       N299   2.082       .  S
Cu297       N307   2.064       .  S
Cu298       N300   2.079       .  S
Cu298       N306   2.078       .  S
N299        N300   1.325       .  A
N299        C303   1.345       .  A
N300        C301   1.346       .  A
C301        C302   1.381       .  A
C301        H304   1.082       .  S
C302        C303   1.382       .  A
C302        C422   1.468       .  S
C303        H305   1.082       .  S
N306        N307   1.321       .  A
N306        C310   1.348       .  A
N307        C308   1.343       .  A
C308        C309   1.380       .  A
C308        H311   1.082       .  S
C309        C310   1.385       .  A
C309       C2122   1.475       .  S
C310        H312   1.082       .  S
N313        N314   1.323       .  A
N313        C317   1.348       .  A
N313       Cu321   2.095       .  S
N314        C315   1.345       .  A
N314       Cu320   2.069       .  S
C315        C316   1.381       .  A
C315        H318   1.082       .  S
C316        C317   1.387       .  A
C316        C398   1.474       .  S
C317        H319   1.082       .  S
Cu320       N323   2.069       .  S
Cu321       N331   2.095       .  S
Cu322       N324   2.084       .  S
Cu322       N330   2.084       .  S
N323        N324   1.322       .  A
N323        C327   1.345       .  A
N324        C325   1.346       .  A
C325        C326   1.385       .  A
C325        H328   1.082       .  S
C326        C327   1.382       .  A
C326        C412   1.473       .  S
C327        H329   1.082       .  S
N330        N331   1.323       .  A
N330        C334   1.347       .  A
N331        C332   1.349       .  A
C332        C333   1.388       .  A
C332        H335   1.082       .  S
C333        C334   1.385       .  A
C333       C2109   1.486       .  S
C334        H336   1.082       .  S
N337        N338   1.323       .  A
N337        C341   1.348       .  A
N337       Cu345   2.086       .  S
N338        C339   1.344       .  A
N338       Cu344   2.074       .  S
C339        C340   1.381       .  A
C339        H342   1.082       .  S
C340        C341   1.386       .  A
C340        C364   1.473       .  S
C341        H343   1.082       .  S
Cu344       N347   2.075       .  S
Cu345       N355   2.085       .  S
Cu346       N348   2.072       .  S
Cu346       N354   2.072       .  S
N347        N348   1.322       .  A
N347        C351   1.346       .  A
N348        C349   1.344       .  A
C349        C350   1.382       .  A
C349        H352   1.082       .  S
C350        C351   1.383       .  A
C350        C388   1.469       .  S
C351        H353   1.082       .  S
N354        N355   1.323       .  A
N354        C358   1.346       .  A
N355        C356   1.345       .  A
C356        C357   1.384       .  A
C356        H359   1.082       .  S
C357        C358   1.382       .  A
C357       C2090   1.478       .  S
C358        H360   1.082       .  S
N361        N362   1.324       .  A
N361        C365   1.346       .  A
N361       Cu369   2.089       .  S
N362        C363   1.347       .  A
N362       Cu368   2.076       .  S
C363        C364   1.382       .  A
C363        H366   1.082       .  S
C364        C365   1.385       .  A
C365        H367   1.082       .  S
Cu368       N371   2.076       .  S
Cu369       N379   2.089       .  S
Cu370       N372   2.070       .  S
Cu370       N378   2.069       .  S
N371        N372   1.322       .  A
N371        C375   1.345       .  A
N372        C373   1.346       .  A
C373        C374   1.381       .  A
C373        H376   1.082       .  S
C374        C375   1.382       .  A
C375        H377   1.082       .  S
N378        N379   1.323       .  A
N378        C382   1.345       .  A
N379        C380   1.348       .  A
C380        C381   1.385       .  A
C380        H383   1.082       .  S
C381        C382   1.380       .  A
C381       C2077   1.476       .  S
C382        H384   1.082       .  S
N385        N386   1.323       .  A
N385        C389   1.348       .  A
N385       Cu393   2.081       .  S
N386        C387   1.343       .  A
N386       Cu392   2.070       .  S
C387        C388   1.380       .  A
C387        H390   1.082       .  S
C388        C389   1.384       .  A
C389        H391   1.082       .  S
Cu392       N395   2.071       .  S
Cu393       N403   2.082       .  S
Cu394       N396   2.085       .  S
Cu394       N402   2.085       .  S
N395        N396   1.322       .  A
N395        C399   1.345       .  A
N396        C397   1.348       .  A
C397        C398   1.387       .  A
C397        H400   1.082       .  S
C398        C399   1.382       .  A
C399        H401   1.082       .  S
N402        N403   1.324       .  A
N402        C406   1.347       .  A
N403        C404   1.347       .  A
C404        C405   1.383       .  A
C404        H407   1.082       .  S
C405        C406   1.384       .  A
C405       C2058   1.481       .  S
C406        H408   1.082       .  S
N409        N410   1.324       .  A
N409        C413   1.347       .  A
N409       Cu417   2.088       .  S
N410        C411   1.345       .  A
N410       Cu416   2.074       .  S
C411        C412   1.381       .  A
C411        H414   1.082       .  S
C412        C413   1.385       .  A
C413        H415   1.082       .  S
Cu416       N419   2.074       .  S
Cu417       N427   2.087       .  S
Cu418       N420   2.065       .  S
Cu418       N426   2.065       .  S
N419        N420   1.321       .  A
N419        C423   1.346       .  A
N420        C421   1.344       .  A
C421        C422   1.381       .  A
C421        H424   1.082       .  S
C422        C423   1.384       .  A
C423        H425   1.082       .  S
N426        N427   1.322       .  A
N426        C430   1.343       .  A
N427        C428   1.348       .  A
C428        C429   1.386       .  A
C428        H431   1.082       .  S
C429        C430   1.381       .  A
C429       C2042   1.477       .  S
C430        H432   1.082       .  S
N433        N434   1.322       .  A
N433        C437   1.346       .  A
N433       Cu441   2.080       .  S
N434        C435   1.345       .  A
N434       Cu440   2.066       .  S
C435        C436   1.381       .  A
C435        H438   1.082       .  S
C436        C437   1.384       .  A
C436        C518   1.469       .  S
C437        H439   1.082       .  S
Cu440       N443   2.067       .  S
Cu441       N451   2.080       .  S
Cu442       N444   2.088       .  S
Cu442       N450   2.089       .  S
N443        N444   1.323       .  A
N443        C447   1.344       .  A
N444        C445   1.347       .  A
C445        C446   1.385       .  A
C445        H448   1.082       .  S
C446        C447   1.380       .  A
C446        C556   1.471       .  S
C447        H449   1.082       .  S
N450        N451   1.322       .  A
N450        C454   1.349       .  A
N451        C452   1.345       .  A
C452        C453   1.386       .  A
C452        H455   1.082       .  S
C453        C454   1.390       .  A
C453       C2026   1.490       .  S
C454        H456   1.080       .  S
N457        N458   1.323       .  A
N457        C461   1.347       .  A
N457       Cu465   2.078       .  S
N458        C459   1.345       .  A
N458       Cu464   2.074       .  S
C459        C460   1.382       .  A
C459        H462   1.082       .  S
C460        C461   1.383       .  A
C460        C542   1.470       .  S
C461        H463   1.082       .  S
Cu464       N467   2.074       .  S
Cu465       N475   2.078       .  S
Cu466       N468   2.063       .  S
Cu466       N474   2.064       .  S
N467        N468   1.322       .  A
N467        C471   1.344       .  A
N468        C469   1.344       .  A
C469        C470   1.380       .  A
C469        H472   1.082       .  S
C470        C471   1.382       .  A
C470        C566   1.462       .  S
C471        H473   1.082       .  S
N474        N475   1.322       .  A
N474        C478   1.343       .  A
N475        C476   1.345       .  A
C476        C477   1.385       .  A
C476        H479   1.081       .  S
C477        C478   1.382       .  A
C477       C2010   1.477       .  S
C478        H480   1.082       .  S
N481        N482   1.322       .  A
N481        C485   1.345       .  A
N481       Cu489   2.072       .  S
N482        C483   1.347       .  A
N482       Cu488   2.081       .  S
C483        C484   1.383       .  A
C483        H486   1.082       .  S
C484        C485   1.382       .  A
C484        C508   1.469       .  S
C485        H487   1.082       .  S
Cu488       N491   2.081       .  S
Cu489       N499   2.073       .  S
Cu490       N492   2.093       .  S
Cu490       N498   2.092       .  S
N491        N492   1.324       .  A
N491        C495   1.346       .  A
N492        C493   1.349       .  A
C493        C494   1.386       .  A
C493        H496   1.082       .  S
C494        C495   1.382       .  A
C494        C532   1.475       .  S
C495        H497   1.082       .  S
N498        N499   1.323       .  A
N498        C502   1.348       .  A
N499        C500   1.345       .  A
C500        C501   1.383       .  A
C500        H503   1.081       .  S
C501        C502   1.387       .  A
C501       C1994   1.483       .  S
C502        H504   1.082       .  S
N505        N506   1.322       .  A
N505        C509   1.347       .  A
N505       Cu513   2.079       .  S
N506        C507   1.345       .  A
N506       Cu512   2.073       .  S
C507        C508   1.381       .  A
C507        H510   1.082       .  S
C508        C509   1.383       .  A
C509        H511   1.082       .  S
Cu512       N515   2.073       .  S
Cu513       N523   2.079       .  S
Cu514       N516   2.079       .  S
Cu514       N522   2.079       .  S
N515        N516   1.323       .  A
N515        C519   1.345       .  A
N516        C517   1.346       .  A
C517        C518   1.384       .  A
C517        H520   1.082       .  S
C518        C519   1.381       .  A
C519        H521   1.082       .  S
N522        N523   1.322       .  A
N522        C526   1.346       .  A
N523        C524   1.346       .  A
C524        C525   1.385       .  A
C524        H527   1.081       .  S
C525        C526   1.384       .  A
C525       C1978   1.482       .  S
C526        H528   1.082       .  S
N529        N530   1.323       .  A
N529        C533   1.348       .  A
N529       Cu537   2.093       .  S
N530        C531   1.347       .  A
N530       Cu536   2.076       .  S
C531        C532   1.382       .  A
C531        H534   1.082       .  S
C532        C533   1.386       .  A
C533        H535   1.082       .  S
Cu536       N539   2.076       .  S
Cu537       N547   2.093       .  S
Cu538       N540   2.081       .  S
Cu538       N546   2.081       .  S
N539        N540   1.323       .  A
N539        C543   1.346       .  A
N540        C541   1.346       .  A
C541        C542   1.383       .  A
C541        H544   1.082       .  S
C542        C543   1.382       .  A
C543        H545   1.082       .  S
N546        N547   1.323       .  A
N546        C550   1.349       .  A
N547        C548   1.348       .  A
C548        C549   1.384       .  A
C548        H551   1.082       .  S
C549        C550   1.383       .  A
C549       C1962   1.481       .  S
C550        H552   1.082       .  S
N553        N554   1.323       .  A
N553        C557   1.345       .  A
N553       Cu561   2.077       .  S
N554        C555   1.346       .  A
N554       Cu560   2.077       .  S
C555        C556   1.383       .  A
C555        H558   1.082       .  S
C556        C557   1.383       .  A
C557        H559   1.082       .  S
Cu560       N563   2.076       .  S
Cu561       N571   2.077       .  S
Cu562       N564   2.061       .  S
Cu562       N570   2.061       .  S
N563        N564   1.322       .  A
N563        C567   1.345       .  A
N564        C565   1.343       .  A
C565        C566   1.379       .  A
C565        H568   1.082       .  S
C566        C567   1.383       .  A
C567        H569   1.082       .  S
N570        N571   1.321       .  A
N570        C574   1.342       .  A
N571        C572   1.346       .  A
C572        C573   1.385       .  A
C572        H575   1.081       .  S
C573        C574   1.381       .  A
C573       C1946   1.477       .  S
C574        H576   1.082       .  S
N577        N578   1.323       .  A
N577        C581   1.346       .  A
N577       Cu585   2.081       .  S
N578        C579   1.346       .  A
N578       Cu584   2.079       .  S
C579        C580   1.383       .  A
C579        H582   1.082       .  S
C580        C581   1.383       .  A
C580        C652   1.471       .  S
C581        H583   1.082       .  S
Cu584       N587   2.080       .  S
Cu585       N595   2.080       .  S
Cu586       N588   2.084       .  S
Cu586       N594   2.084       .  S
N587        N588   1.323       .  A
N587        C591   1.347       .  A
N588        C589   1.346       .  A
C589        C590   1.383       .  A
C589        H592   1.082       .  S
C590        C591   1.383       .  A
C590        C700   1.473       .  S
C591        H593   1.082       .  S
N594        N595   1.322       .  A
N594        C598   1.347       .  A
N595        C596   1.347       .  A
C596        C597   1.385       .  A
C596        H599   1.082       .  S
C597        C598   1.387       .  A
C597       C1930   1.485       .  S
C598        H600   1.081       .  S
N601        N602   1.322       .  A
N601        C605   1.345       .  A
N601       Cu609   2.073       .  S
N602        C603   1.346       .  A
N602       Cu608   2.073       .  S
C603        C604   1.383       .  A
C603        H606   1.082       .  S
C604        C605   1.382       .  A
C604        C710   1.470       .  S
C605        H607   1.082       .  S
Cu608       N611   2.073       .  S
Cu609       N619   2.073       .  S
Cu610       N612   2.072       .  S
Cu610       N618   2.072       .  S
N611        N612   1.323       .  A
N611        C615   1.343       .  A
N612        C613   1.346       .  A
C613        C614   1.382       .  A
C613        H616   1.082       .  S
C614        C615   1.381       .  A
C614        C686   1.467       .  S
C615        H617   1.082       .  S
N618        N619   1.322       .  A
N618        C622   1.345       .  A
N619        C620   1.344       .  A
C620        C621   1.384       .  A
C620        H623   1.081       .  S
C621        C622   1.385       .  A
C621       C1914   1.480       .  S
C622        H624   1.082       .  S
N625        N626   1.322       .  A
N625        C629   1.345       .  A
N625       Cu633   2.067       .  S
N626        C627   1.345       .  A
N626       Cu632   2.075       .  S
C627        C628   1.382       .  A
C627        H630   1.082       .  S
C628        C629   1.381       .  A
C628        C662   1.466       .  S
C629        H631   1.082       .  S
Cu632       N635   2.076       .  S
Cu633       N643   2.067       .  S
Cu634       N636   2.087       .  S
Cu634       N642   2.087       .  S
N635        N636   1.324       .  A
N635        C639   1.345       .  A
N636        C637   1.347       .  A
C637        C638   1.384       .  A
C637        H640   1.082       .  S
C638        C639   1.382       .  A
C638        C676   1.472       .  S
C639        H641   1.082       .  S
N642        N643   1.322       .  A
N642        C646   1.348       .  A
N643        C644   1.343       .  A
C644        C645   1.381       .  A
C644        H647   1.082       .  S
C645        C646   1.387       .  A
C645       C1901   1.480       .  S
C646        H648   1.081       .  S
N649        N650   1.323       .  A
N649        C653   1.346       .  A
N649       Cu657   2.075       .  S
N650        C651   1.347       .  A
N650       Cu656   2.084       .  S
C651        C652   1.384       .  A
C651        H654   1.082       .  S
C652        C653   1.382       .  A
C653        H655   1.082       .  S
Cu656       N659   2.083       .  S
Cu657       N667   2.075       .  S
Cu658       N660   2.069       .  S
Cu658       N666   2.070       .  S
N659        N660   1.323       .  A
N659        C663   1.346       .  A
N660        C661   1.345       .  A
C661        C662   1.380       .  A
C661        H664   1.082       .  S
C662        C663   1.383       .  A
C663        H665   1.082       .  S
N666        N667   1.322       .  A
N666        C670   1.345       .  A
N667        C668   1.345       .  A
C668        C669   1.384       .  A
C668        H671   1.081       .  S
C669        C670   1.383       .  A
C669       C1882   1.478       .  S
C670        H672   1.082       .  S
N673        N674   1.323       .  A
N673        C677   1.346       .  A
N673       Cu681   2.078       .  S
N674        C675   1.347       .  A
N674       Cu680   2.083       .  S
C675        C676   1.384       .  A
C675        H678   1.082       .  S
C676        C677   1.383       .  A
C677        H679   1.082       .  S
Cu680       N683   2.083       .  S
Cu681       N691   2.076       .  S
Cu682       N684   2.064       .  S
Cu682       N690   2.064       .  S
N683        N684   1.323       .  A
N683        C687   1.347       .  A
N684        C685   1.342       .  A
C685        C686   1.379       .  A
C685        H688   1.082       .  S
C686        C687   1.384       .  A
C687        H689   1.082       .  S
N690        N691   1.321       .  A
N690        C694   1.345       .  A
N691        C692   1.344       .  A
C692        C693   1.385       .  A
C692        H695   1.082       .  S
C693        C694   1.383       .  A
C693       C1866   1.478       .  S
C694        H696   1.081       .  S
N697        N698   1.324       .  A
N697        C701   1.348       .  A
N697       Cu705   2.091       .  S
N698        C699   1.345       .  A
N698       Cu704   2.076       .  S
C699        C700   1.382       .  A
C699        H702   1.082       .  S
C700        C701   1.385       .  A
C701        H703   1.082       .  S
Cu704       N707   2.075       .  S
Cu705       N715   2.092       .  S
Cu706       N708   2.075       .  S
Cu706       N714   2.076       .  S
N707        N708   1.322       .  A
N707        C711   1.345       .  A
N708        C709   1.346       .  A
C709        C710   1.383       .  A
C709        H712   1.082       .  S
C710        C711   1.383       .  A
C711        H713   1.082       .  S
N714        N715   1.323       .  A
N714        C718   1.345       .  A
N715        C716   1.349       .  A
C716        C717   1.388       .  A
C716        H719   1.082       .  S
C717        C718   1.382       .  A
C717       C1850   1.484       .  S
C718        H720   1.082       .  S
N721        N722   1.323       .  A
N721        C725   1.348       .  A
N721       Cu729   2.088       .  S
N722        C723   1.346       .  A
N722       Cu728   2.080       .  S
C723        C724   1.382       .  A
C723        H726   1.082       .  S
C724        C725   1.384       .  A
C724        C806   1.471       .  S
C725        H727   1.082       .  S
Cu728       N731   2.080       .  S
Cu729       N739   2.088       .  S
Cu730       N732   2.084       .  S
Cu730       N738   2.084       .  S
N731        N732   1.323       .  A
N731        C735   1.346       .  A
N732        C733   1.348       .  A
C733        C734   1.384       .  A
C733        H736   1.082       .  S
C734        C735   1.383       .  A
C734        C854   1.472       .  S
C735        H737   1.082       .  S
N738        N739   1.323       .  A
N738        C742   1.347       .  A
N739        C740   1.348       .  A
C740        C741   1.385       .  A
C740        H743   1.082       .  S
C741        C742   1.385       .  A
C741       C1837   1.483       .  S
C742        H744   1.082       .  S
N745        N746   1.322       .  A
N745        C749   1.344       .  A
N745       Cu753   2.068       .  S
N746        C747   1.346       .  A
N746       Cu752   2.075       .  S
C747        C748   1.383       .  A
C747        H750   1.082       .  S
C748        C749   1.381       .  A
C748        C830   1.468       .  S
C749        H751   1.082       .  S
Cu752       N755   2.074       .  S
Cu753       N763   2.067       .  S
Cu754       N756   2.071       .  S
Cu754       N762   2.071       .  S
N755        N756   1.323       .  A
N755        C759   1.344       .  A
N756        C757   1.345       .  A
C757        C758   1.382       .  A
C757        H760   1.082       .  S
C758        C759   1.382       .  A
C758        C844   1.468       .  S
C759        H761   1.082       .  S
N762        N763   1.322       .  A
N762        C766   1.344       .  A
N763        C764   1.344       .  A
C764        C765   1.381       .  A
C764        H767   1.082       .  S
C765        C766   1.383       .  A
C765       C1818   1.474       .  S
C766        H768   1.082       .  S
N769        N770   1.323       .  A
N769        C773   1.342       .  A
N769       Cu777   2.059       .  S
N770        C771   1.345       .  A
N770       Cu776   2.077       .  S
C771        C772   1.383       .  A
C771        H774   1.082       .  S
C772        C773   1.379       .  A
C772        C820   1.465       .  S
C773        H775   1.082       .  S
Cu776       N779   2.077       .  S
Cu777       N787   2.058       .  S
Cu778       N780   2.072       .  S
Cu778       N786   2.071       .  S
N779        N780   1.323       .  A
N779        C783   1.346       .  A
N780        C781   1.344       .  A
C781        C782   1.381       .  A
C781        H784   1.082       .  S
C782        C783   1.383       .  A
C782        C796   1.469       .  S
C783        H785   1.082       .  S
N786        N787   1.321       .  A
N786        C790   1.344       .  A
N787        C788   1.343       .  A
C788        C789   1.380       .  A
C788        H791   1.082       .  S
C789        C790   1.381       .  A
C789       C1805   1.469       .  S
C790        H792   1.082       .  S
N793        N794   1.324       .  A
N793        C797   1.346       .  A
N793       Cu801   2.077       .  S
N794        C795   1.346       .  A
N794       Cu800   2.083       .  S
C795        C796   1.382       .  A
C795        H798   1.082       .  S
C796        C797   1.381       .  A
C797        H799   1.082       .  S
Cu800       N803   2.083       .  S
Cu801       N811   2.078       .  S
Cu802       N804   2.082       .  S
Cu802       N810   2.082       .  S
N803        N804   1.323       .  A
N803        C807   1.347       .  A
N804        C805   1.347       .  A
C805        C806   1.383       .  A
C805        H808   1.082       .  S
C806        C807   1.383       .  A
C807        H809   1.082       .  S
N810        N811   1.322       .  A
N810        C814   1.346       .  A
N811        C812   1.346       .  A
C812        C813   1.386       .  A
C812        H815   1.082       .  S
C813        C814   1.387       .  A
C813       C1789   1.487       .  S
C814        H816   1.080       .  S
N817        N818   1.322       .  A
N817        C821   1.344       .  A
N817       Cu825   2.064       .  S
N818        C819   1.343       .  A
N818       Cu824   2.067       .  S
C819        C820   1.381       .  A
C819        H822   1.082       .  S
C820        C821   1.381       .  A
C821        H823   1.082       .  S
Cu824       N827   2.067       .  S
Cu825       N835   2.065       .  S
Cu826       N828   2.078       .  S
Cu826       N834   2.078       .  S
N827        N828   1.323       .  A
N827        C831   1.344       .  A
N828        C829   1.346       .  A
C829        C830   1.383       .  A
C829        H832   1.082       .  S
C830        C831   1.381       .  A
C831        H833   1.082       .  S
N834        N835   1.322       .  A
N834        C838   1.346       .  A
N835        C836   1.343       .  A
C836        C837   1.382       .  A
C836        H839   1.081       .  S
C837        C838   1.385       .  A
C837       C1770   1.478       .  S
C838        H840   1.082       .  S
N841        N842   1.323       .  A
N841        C845   1.343       .  A
N841       Cu849   2.062       .  S
N842        C843   1.347       .  A
N842       Cu848   2.088       .  S
C843        C844   1.385       .  A
C843        H846   1.082       .  S
C844        C845   1.379       .  A
C845        H847   1.082       .  S
Cu848       N851   2.089       .  S
Cu849       N859   2.062       .  S
Cu850       N852   2.078       .  S
Cu850       N858   2.077       .  S
N851        N852   1.324       .  A
N851        C855   1.349       .  A
N852        C853   1.345       .  A
C853        C854   1.381       .  A
C853        H856   1.082       .  S
C854        C855   1.385       .  A
C855        H857   1.082       .  S
N858        N859   1.321       .  A
N858        C862   1.346       .  A
N859        C860   1.343       .  A
C860        C861   1.382       .  A
C860        H863   1.082       .  S
C861        C862   1.385       .  A
C861       C1754   1.477       .  S
C862        H864   1.082       .  S
N865        N866   1.321       .  A
N865        C869   1.350       .  A
N865       Cu873   2.080       .  S
N866        C867   1.339       .  A
N866       Cu872   2.059       .  S
C867        C868   1.378       .  A
C867        H870   1.082       .  S
C868        C869   1.386       .  A
C868        C940   1.468       .  S
C869        H871   1.082       .  S
Cu872       N875   2.059       .  S
Cu873       N883   2.082       .  S
Cu874       N876   2.082       .  S
Cu874       N882   2.084       .  S
N875        N876   1.321       .  A
N875        C879   1.343       .  A
N876        C877   1.348       .  A
C877        C878   1.384       .  A
C877        H880   1.082       .  S
C878        C879   1.378       .  A
C878        C988   1.464       .  S
C879        H881   1.082       .  S
N882        N883   1.325       .  A
N882        C886   1.345       .  A
N883        C884   1.347       .  A
C884        C885   1.382       .  A
C884        H887   1.082       .  S
C885        C886   1.382       .  A
C885       C1738   1.477       .  S
C886        H888   1.082       .  S
N889        N890   1.323       .  A
N889        C893   1.345       .  A
N889       Cu897   2.073       .  S
N890        C891   1.345       .  A
N890       Cu896   2.076       .  S
C891        C892   1.382       .  A
C891        H894   1.082       .  S
C892        C893   1.382       .  A
C892        C998   1.468       .  S
C893        H895   1.082       .  S
Cu896       N899   2.076       .  S
Cu897       N907   2.073       .  S
Cu898       N900   2.072       .  S
Cu898       N906   2.072       .  S
N899        N900   1.322       .  A
N899        C903   1.345       .  A
N900        C901   1.345       .  A
C901        C902   1.381       .  A
C901        H904   1.082       .  S
C902        C903   1.383       .  A
C902        C964   1.464       .  S
C903        H905   1.082       .  S
N906        N907   1.322       .  A
N906        C910   1.344       .  A
N907        C908   1.345       .  A
C908        C909   1.383       .  A
C908        H911   1.082       .  S
C909        C910   1.382       .  A
C909       C1725   1.476       .  S
C910        H912   1.082       .  S
N913        N914   1.320       .  A
N913        C917   1.346       .  A
N913       Cu921   2.072       .  S
N914        C915   1.343       .  A
N914       Cu920   2.059       .  S
C915        C916   1.381       .  A
C915        H918   1.082       .  S
C916        C917   1.383       .  A
C916        C950   1.467       .  S
C917        H919   1.082       .  S
Cu920       N923   2.059       .  S
Cu921       N931   2.073       .  S
Cu922       N924   2.081       .  S
Cu922       N930   2.083       .  S
N923        N924   1.322       .  A
N923        C927   1.338       .  A
N924        C925   1.350       .  A
C925        C926   1.385       .  A
C925        H928   1.082       .  S
C926        C927   1.378       .  A
C926        C974   1.466       .  S
C927        H929   1.082       .  S
N930        N931   1.323       .  A
N930        C934   1.346       .  A
N931        C932   1.344       .  A
C932        C933   1.383       .  A
C932        H935   1.081       .  S
C933        C934   1.384       .  A
C933       C1706   1.480       .  S
C934        H936   1.082       .  S
N937        N938   1.322       .  A
N937        C941   1.350       .  A
N937       Cu945   2.082       .  S
N938        C939   1.339       .  A
N938       Cu944   2.057       .  S
C939        C940   1.378       .  A
C939        H942   1.082       .  S
C940        C941   1.386       .  A
C941        H943   1.082       .  S
Cu944       N947   2.057       .  S
Cu945       N955   2.084       .  S
Cu946       N948   2.078       .  S
Cu946       N954   2.080       .  S
N947        N948   1.321       .  A
N947        C951   1.343       .  A
N948        C949   1.346       .  A
C949        C950   1.384       .  A
C949        H952   1.082       .  S
C950        C951   1.380       .  A
C951        H953   1.082       .  S
N954        N955   1.324       .  A
N954        C958   1.346       .  A
N955        C956   1.346       .  A
C956        C957   1.383       .  A
C956        H959   1.082       .  S
C957        C958   1.382       .  A
C957       C1690   1.477       .  S
C958        H960   1.082       .  S
N961        N962   1.321       .  A
N961        C965   1.349       .  A
N961       Cu969   2.084       .  S
N962        C963   1.341       .  A
N962       Cu968   2.054       .  S
C963        C964   1.377       .  A
C963        H966   1.082       .  S
C964        C965   1.385       .  A
C965        H967   1.082       .  S
Cu968       N971   2.053       .  S
Cu969       N979   2.086       .  S
Cu970       N972   2.079       .  S
Cu970       N978   2.081       .  S
N971        N972   1.321       .  A
N971        C975   1.338       .  A
N972        C973   1.350       .  A
C973        C974   1.386       .  A
C973        H976   1.082       .  S
C974        C975   1.377       .  A
C975        H977   1.082       .  S
N978        N979   1.325       .  A
N978        C982   1.346       .  A
N979        C980   1.346       .  A
C980        C981   1.383       .  A
C980        H983   1.082       .  S
C981        C982   1.382       .  A
C981       C1674   1.477       .  S
C982        H984   1.082       .  S
N985        N986   1.322       .  A
N985        C989   1.345       .  A
N985       Cu993   2.070       .  S
N986        C987   1.345       .  A
N986       Cu992   2.074       .  S
C987        C988   1.382       .  A
C987        H990   1.082       .  S
C988        C989   1.381       .  A
C989        H991   1.082       .  S
Cu992       N995   2.072       .  S
Cu993      N1003   2.070       .  S
Cu994       N996   2.080       .  S
Cu994      N1002   2.081       .  S
N995        N996   1.323       .  A
N995        C999   1.345       .  A
N996        C997   1.346       .  A
C997        C998   1.383       .  A
C997       H1000   1.082       .  S
C998        C999   1.381       .  A
C999       H1001   1.082       .  S
N1002      N1003   1.322       .  A
N1002      C1006   1.347       .  A
N1003      C1004   1.344       .  A
C1004      C1005   1.382       .  A
C1004      H1007   1.082       .  S
C1005      C1006   1.386       .  A
C1005      C1658   1.480       .  S
C1006      H1008   1.081       .  S
N1009      N1010   1.324       .  A
N1009      C1013   1.350       .  A
N1009     Cu1017   2.090       .  S
N1010      C1011   1.342       .  A
N1010     Cu1016   2.070       .  S
C1011      C1012   1.379       .  A
C1011      H1014   1.082       .  S
C1012      C1013   1.385       .  A
C1012      C1108   1.469       .  S
C1013      H1015   1.082       .  S
Cu1016     N1019   2.071       .  S
Cu1017     N1027   2.091       .  S
Cu1018     N1020   2.073       .  S
Cu1018     N1026   2.073       .  S
N1019      N1020   1.322       .  A
N1019      C1023   1.346       .  A
N1020      C1021   1.345       .  A
C1021      C1022   1.381       .  A
C1021      H1024   1.082       .  S
C1022      C1023   1.381       .  A
C1022      C1132   1.464       .  S
C1023      H1025   1.082       .  S
N1026      N1027   1.324       .  A
N1026      C1030   1.345       .  A
N1027      C1028   1.349       .  A
C1028      C1029   1.385       .  A
C1028      H1031   1.082       .  S
C1029      C1030   1.381       .  A
C1029      C1642   1.479       .  S
C1030      H1032   1.082       .  S
N1033      N1034   1.323       .  A
N1033      C1037   1.343       .  A
N1033     Cu1041   2.067       .  S
N1034      C1035   1.347       .  A
N1034     Cu1040   2.085       .  S
C1035      C1036   1.384       .  A
C1035      H1038   1.082       .  S
C1036      C1037   1.378       .  A
C1036      C1142   1.464       .  S
C1037      H1039   1.082       .  S
Cu1040     N1043   2.084       .  S
Cu1041     N1051   2.066       .  S
Cu1042     N1044   2.048       .  S
Cu1042     N1050   2.049       .  S
N1043      N1044   1.322       .  A
N1043      C1047   1.346       .  A
N1044      C1045   1.341       .  A
C1045      C1046   1.375       .  A
C1045      H1048   1.082       .  S
C1046      C1047   1.384       .  A
C1046      C1084   1.461       .  S
C1047      H1049   1.082       .  S
N1050      N1051   1.319       .  A
N1050      C1054   1.341       .  A
N1051      C1052   1.343       .  A
C1052      C1053   1.385       .  A
C1052      H1055   1.082       .  S
C1053      C1054   1.381       .  A
C1053      C1629   1.474       .  S
C1054      H1056   1.081       .  S
N1057      N1058   1.324       .  A
N1057      C1061   1.346       .  A
N1057     Cu1065   2.077       .  S
N1058      C1059   1.345       .  A
N1058     Cu1064   2.081       .  S
C1059      C1060   1.382       .  A
C1059      H1062   1.082       .  S
C1060      C1061   1.382       .  A
C1060      C1118   1.468       .  S
C1061      H1063   1.082       .  S
Cu1064     N1067   2.081       .  S
Cu1065     N1075   2.076       .  S
Cu1066     N1068   2.061       .  S
Cu1066     N1074   2.060       .  S
N1067      N1068   1.322       .  A
N1067      C1071   1.347       .  A
N1068      C1069   1.343       .  A
C1069      C1070   1.379       .  A
C1069      H1072   1.082       .  S
C1070      C1071   1.384       .  A
C1070      C1094   1.467       .  S
C1071      H1073   1.082       .  S
N1074      N1075   1.322       .  A
N1074      C1078   1.342       .  A
N1075      C1076   1.346       .  A
C1076      C1077   1.384       .  A
C1076      H1079   1.082       .  S
C1077      C1078   1.379       .  A
C1077      C1613   1.472       .  S
C1078      H1080   1.082       .  S
N1081      N1082   1.322       .  A
N1081      C1085   1.342       .  A
N1081     Cu1089   2.053       .  S
N1082      C1083   1.344       .  A
N1082     Cu1088   2.076       .  S
C1083      C1084   1.383       .  A
C1083      H1086   1.082       .  S
C1084      C1085   1.377       .  A
C1085      H1087   1.082       .  S
Cu1088     N1091   2.076       .  S
Cu1089     N1099   2.054       .  S
Cu1090     N1092   2.073       .  S
Cu1090     N1098   2.072       .  S
N1091      N1092   1.323       .  A
N1091      C1095   1.345       .  A
N1092      C1093   1.346       .  A
C1093      C1094   1.381       .  A
C1093      H1096   1.082       .  S
C1094      C1095   1.382       .  A
C1095      H1097   1.082       .  S
N1098      N1099   1.321       .  A
N1098      C1102   1.344       .  A
N1099      C1100   1.342       .  A
C1100      C1101   1.381       .  A
C1100      H1103   1.081       .  S
C1101      C1102   1.384       .  A
C1101      C1594   1.474       .  S
C1102      H1104   1.082       .  S
N1105      N1106   1.322       .  A
N1105      C1109   1.341       .  A
N1105     Cu1113   2.062       .  S
N1106      C1107   1.350       .  A
N1106     Cu1112   2.088       .  S
C1107      C1108   1.386       .  A
C1107      H1110   1.082       .  S
C1108      C1109   1.379       .  A
C1109      H1111   1.082       .  S
Cu1112     N1115   2.088       .  S
Cu1113     N1123   2.061       .  S
Cu1114     N1116   2.074       .  S
Cu1114     N1122   2.073       .  S
N1115      N1116   1.325       .  A
N1115      C1119   1.347       .  A
N1116      C1117   1.344       .  A
C1117      C1118   1.380       .  A
C1117      H1120   1.082       .  S
C1118      C1119   1.383       .  A
C1119      H1121   1.082       .  S
N1122      N1123   1.320       .  A
N1122      C1126   1.346       .  A
N1123      C1124   1.342       .  A
C1124      C1125   1.382       .  A
C1124      H1127   1.082       .  S
C1125      C1126   1.388       .  A
C1125      C1578   1.480       .  S
C1126      H1128   1.081       .  S
N1129      N1130   1.322       .  A
N1129      C1133   1.346       .  A
N1129     Cu1137   2.075       .  S
N1130      C1131   1.346       .  A
N1130     Cu1136   2.070       .  S
C1131      C1132   1.381       .  A
C1131      H1134   1.082       .  S
C1132      C1133   1.381       .  A
C1133      H1135   1.082       .  S
Cu1136     N1139   2.070       .  S
Cu1137     N1147   2.075       .  S
Cu1138     N1140   2.080       .  S
Cu1138     N1146   2.081       .  S
N1139      N1140   1.324       .  A
N1139      C1143   1.343       .  A
N1140      C1141   1.348       .  A
C1141      C1142   1.382       .  A
C1141      H1144   1.082       .  S
C1142      C1143   1.378       .  A
C1143      H1145   1.082       .  S
N1146      N1147   1.324       .  A
N1146      C1150   1.347       .  A
N1147      C1148   1.345       .  A
C1148      C1149   1.381       .  A
C1148      H1151   1.082       .  S
C1149      C1150   1.382       .  A
C1149      C1562   1.475       .  S
C1150      H1152   1.082       .  S
N1153      C1158   1.353       .  A
N1153      C1157   1.353       .  A
N1153      H1185   1.039       .  S
N1154      C1161   1.351       .  A
N1154      C1162   1.351       .  A
N1155      C1160   1.353       .  A
N1155      C1159   1.354       .  A
N1155      H1186   1.039       .  S
N1156      C1163   1.352       .  A
N1156      C1164   1.351       .  A
C1157      C1165   1.387       .  A
C1157      C1173   1.415       .  A
C1158      C1174   1.414       .  A
C1158      C1166   1.386       .  A
C1159      C1167   1.387       .  A
C1159      C1176   1.415       .  A
C1160      C1175   1.416       .  A
C1160      C1168   1.387       .  A
C1161      C1173   1.412       .  A
C1161      C1169   1.386       .  A
C1162      C1176   1.412       .  A
C1162      C1170   1.386       .  A
C1163      C1171   1.385       .  A
C1163      C1174   1.414       .  A
C1164      C1172   1.387       .  A
C1164      C1175   1.414       .  A
C1165      C1166   1.374       .  A
C1165      H1177   1.082       .  S
C1166      H1178   1.082       .  S
C1167      C1168   1.376       .  A
C1167      H1179   1.082       .  S
C1168      H1180   1.082       .  S
C1169      C1170   1.374       .  A
C1169      H1181   1.082       .  S
C1170      H1182   1.082       .  S
C1171      C1172   1.375       .  A
C1171      H1183   1.082       .  S
C1172      H1184   1.082       .  S
C1173      C1885   1.488       .  S
C1174      C1786   1.491       .  S
C1175      C1693   1.490       .  S
C1176      C1565   1.487       .  S
N1187      C1192   1.356       .  A
N1187      C1191   1.354       .  A
N1187      H1219   1.040       .  S
N1188      C1195   1.352       .  A
N1188      C1196   1.354       .  A
N1189      C1194   1.351       .  A
N1189      C1193   1.352       .  A
N1189      H1220   1.040       .  S
N1190      C1197   1.351       .  A
N1190      C1198   1.352       .  A
C1191      C1199   1.388       .  A
C1191      C1207   1.421       .  A
C1192      C1208   1.421       .  A
C1192      C1200   1.387       .  A
C1193      C1201   1.387       .  A
C1193      C1210   1.413       .  A
C1194      C1209   1.413       .  A
C1194      C1202   1.387       .  A
C1195      C1207   1.418       .  A
C1195      C1203   1.387       .  A
C1196      C1210   1.415       .  A
C1196      C1204   1.385       .  A
C1197      C1205   1.387       .  A
C1197      C1208   1.414       .  A
C1198      C1206   1.386       .  A
C1198      C1209   1.413       .  A
C1199      C1200   1.377       .  A
C1199      H1211   1.082       .  S
C1200      H1212   1.082       .  S
C1201      C1202   1.375       .  A
C1201      H1213   1.082       .  S
C1202      H1214   1.082       .  S
C1203      C1204   1.375       .  A
C1203      H1215   1.082       .  S
C1204      H1216   1.082       .  S
C1205      C1206   1.373       .  A
C1205      H1217   1.082       .  S
C1206      H1218   1.082       .  S
C1207      C2061   1.495       .  S
C1208      C1853   1.496       .  S
C1209      C1581   1.487       .  S
C1210      C2138   1.492       .  S
N1221      C1226   1.351       .  A
N1221      C1225   1.353       .  A
N1221      H1253   1.039       .  S
N1222      C1229   1.350       .  A
N1222      C1230   1.348       .  A
N1223      C1228   1.353       .  A
N1223      C1227   1.351       .  A
N1223      H1254   1.039       .  S
N1224      C1231   1.349       .  A
N1224      C1232   1.351       .  A
C1225      C1233   1.386       .  A
C1225      C1241   1.413       .  A
C1226      C1242   1.413       .  A
C1226      C1234   1.387       .  A
C1227      C1235   1.388       .  A
C1227      C1244   1.415       .  A
C1228      C1243   1.413       .  A
C1228      C1236   1.385       .  A
C1229      C1241   1.411       .  A
C1229      C1237   1.385       .  A
C1230      C1244   1.411       .  A
C1230      C1238   1.387       .  A
C1231      C1239   1.387       .  A
C1231      C1242   1.411       .  A
C1232      C1240   1.386       .  A
C1232      C1243   1.411       .  A
C1233      C1234   1.377       .  A
C1233      H1245   1.082       .  S
C1234      H1246   1.082       .  S
C1235      C1236   1.377       .  A
C1235      H1247   1.082       .  S
C1236      H1248   1.082       .  S
C1237      C1238   1.374       .  A
C1237      H1249   1.082       .  S
C1238      H1250   1.082       .  S
C1239      C1240   1.373       .  A
C1239      H1251   1.082       .  S
C1240      H1252   1.082       .  S
C1241      C2157   1.489       .  S
C1242      C2237   1.481       .  S
C1243      C1677   1.491       .  S
C1244      C1597   1.483       .  S
N1255      C1260   1.352       .  A
N1255      C1259   1.354       .  A
N1255      H1287   1.041       .  S
N1256      C1263   1.351       .  A
N1256      C1264   1.351       .  A
N1257      C1262   1.353       .  A
N1257      C1261   1.352       .  A
N1257      H1288   1.038       .  S
N1258      C1265   1.350       .  A
N1258      C1266   1.351       .  A
C1259      C1267   1.386       .  A
C1259      C1275   1.414       .  A
C1260      C1276   1.415       .  A
C1260      C1268   1.387       .  A
C1261      C1269   1.387       .  A
C1261      C1278   1.413       .  A
C1262      C1277   1.415       .  A
C1262      C1270   1.387       .  A
C1263      C1275   1.413       .  A
C1263      C1271   1.386       .  A
C1264      C1278   1.412       .  A
C1264      C1272   1.386       .  A
C1265      C1273   1.387       .  A
C1265      C1276   1.413       .  A
C1266      C1274   1.386       .  A
C1266      C1277   1.412       .  A
C1267      C1268   1.376       .  A
C1267      H1279   1.082       .  S
C1268      H1280   1.082       .  S
C1269      C1270   1.375       .  A
C1269      H1281   1.082       .  S
C1270      H1282   1.082       .  S
C1271      C1272   1.373       .  A
C1271      H1283   1.082       .  S
C1272      H1284   1.082       .  S
C1273      C1274   1.375       .  A
C1273      H1285   1.082       .  S
C1274      H1286   1.082       .  S
C1275      C1981   1.494       .  S
C1276      C1773   1.489       .  S
C1277      C1661   1.487       .  S
C1278      C2253   1.484       .  S
N1289      C1294   1.352       .  A
N1289      C1293   1.353       .  A
N1289      H1321   1.038       .  S
N1290      C1297   1.350       .  A
N1290      C1298   1.349       .  A
N1291      C1296   1.353       .  A
N1291      C1295   1.353       .  A
N1291      H1322   1.039       .  S
N1292      C1299   1.351       .  A
N1292      C1300   1.352       .  A
C1293      C1301   1.387       .  A
C1293      C1309   1.414       .  A
C1294      C1310   1.414       .  A
C1294      C1302   1.387       .  A
C1295      C1303   1.387       .  A
C1295      C1312   1.415       .  A
C1296      C1311   1.414       .  A
C1296      C1304   1.387       .  A
C1297      C1309   1.410       .  A
C1297      C1305   1.386       .  A
C1298      C1312   1.411       .  A
C1298      C1306   1.386       .  A
C1299      C1307   1.386       .  A
C1299      C1310   1.413       .  A
C1300      C1308   1.386       .  A
C1300      C1311   1.414       .  A
C1301      C1302   1.375       .  A
C1301      H1313   1.082       .  S
C1302      H1314   1.082       .  S
C1303      C1304   1.375       .  A
C1303      H1315   1.082       .  S
C1304      H1316   1.082       .  S
C1305      C1306   1.372       .  A
C1305      H1317   1.082       .  S
C1306      H1318   1.082       .  S
C1307      C1308   1.373       .  A
C1307      H1319   1.082       .  S
C1308      H1320   1.082       .  S
C1309      C1757   1.485       .  S
C1310      C1949   1.484       .  S
C1311      C2045   1.490       .  S
C1312      C1869   1.487       .  S
N1323      C1328   1.353       .  A
N1323      C1327   1.353       .  A
N1323      H1355   1.045       .  S
N1324      C1331   1.353       .  A
N1324      C1332   1.348       .  A
N1325      C1330   1.358       .  A
N1325      C1329   1.355       .  A
N1325      H1356   1.041       .  S
N1326      C1333   1.350       .  A
N1326      C1334   1.346       .  A
C1327      C1335   1.385       .  A
C1327      C1343   1.403       .  A
C1328      C1344   1.403       .  A
C1328      C1336   1.384       .  A
C1329      C1337   1.389       .  A
C1329      C1346   1.422       .  A
C1330      C1345   1.419       .  A
C1330      C1338   1.385       .  A
C1331      C1343   1.414       .  A
C1331      C1339   1.384       .  A
C1332      C1346   1.417       .  A
C1332      C1340   1.389       .  A
C1333      C1341   1.384       .  A
C1333      C1344   1.409       .  A
C1334      C1342   1.388       .  A
C1334      C1345   1.413       .  A
C1335      C1336   1.370       .  A
C1335      H1347   1.083       .  S
C1336      H1348   1.083       .  S
C1337      C1338   1.375       .  A
C1337      H1349   1.082       .  S
C1338      H1350   1.082       .  S
C1339      C1340   1.381       .  A
C1339      H1351   1.082       .  S
C1340      H1352   1.082       .  S
C1341      C1342   1.380       .  A
C1341      H1353   1.082       .  S
C1342      H1354   1.082       .  S
C1343      C1965   1.489       .  S
C1344      C2074   1.482       .  S
C1345      C2173   1.493       .  S
C1346      C2269   1.493       .  S
N1357      C1362   1.351       .  A
N1357      C1361   1.352   1_455  A
N1357      H1389   1.039   1_545  S
N1358      C1365   1.350   1_565  A
N1358      C1366   1.350       .  A
N1359      C1364   1.353       .  A
N1359      C1363   1.351   1_455  A
N1359      H1390   1.039       .  S
N1360      C1367   1.350       .  A
N1360      C1368   1.349       .  A
C1361      C1369   1.386   1_655  A
C1361      C1377   1.412       .  A
C1362      C1378   1.413       .  A
C1362      C1370   1.388       .  A
C1363      C1371   1.386       .  A
C1363      C1380   1.412       .  A
C1364      C1379   1.414       .  A
C1364      C1372   1.387       .  A
C1365      C1377   1.411       .  A
C1365      C1373   1.386   1_545  A
C1366      C1380   1.411       .  A
C1366      C1374   1.386       .  A
C1367      C1375   1.386       .  A
C1367      C1378   1.411   1_565  A
C1368      C1376   1.387       .  A
C1368      C1379   1.412       .  A
C1369      C1370   1.375       .  A
C1369      H1381   1.082   1_455  S
C1370      H1382   1.082       .  S
C1371      C1372   1.376   1_655  A
C1371      H1383   1.082       .  S
C1372      H1384   1.082       .  S
C1373      C1374   1.373       .  A
C1373      H1385   1.082   1_565  S
C1374      H1386   1.082       .  S
C1375      C1376   1.374       .  A
C1375      H1387   1.082       .  S
C1376      H1388   1.082       .  S
C1377      C1722   1.485       .  S
C1378      C1610   1.484       .  S
C1379      C1917   1.488       .  S
C1380      C1821   1.483       .  S
N1391      C1396   1.354   1_455  A
N1391      C1395   1.354       .  A
N1391      H1423   1.039       .  S
N1392      C1399   1.352   1_565  A
N1392      C1400   1.353       .  A
N1393      C1398   1.354   1_455  A
N1393      C1397   1.355       .  A
N1393      H1424   1.040       .  S
N1394      C1401   1.354   1_565  A
N1394      C1402   1.354       .  A
C1395      C1403   1.388       .  A
C1395      C1411   1.418       .  A
C1396      C1412   1.417       .  A
C1396      C1404   1.387       .  A
C1397      C1405   1.386       .  A
C1397      C1414   1.418       .  A
C1398      C1413   1.419       .  A
C1398      C1406   1.388       .  A
C1399      C1411   1.415       .  A
C1399      C1407   1.386   1_545  A
C1400      C1414   1.416       .  A
C1400      C1408   1.386       .  A
C1401      C1409   1.385       .  A
C1401      C1412   1.417       .  A
C1402      C1410   1.387       .  A
C1402      C1413   1.419       .  A
C1403      C1404   1.375   1_455  A
C1403      H1415   1.082       .  S
C1404      H1416   1.082       .  S
C1405      C1406   1.378   1_455  A
C1405      H1417   1.082       .  S
C1406      H1418   1.082       .  S
C1407      C1408   1.374       .  A
C1407      H1419   1.082   1_565  S
C1408      H1420   1.082       .  S
C1409      C1410   1.373   1_545  A
C1409      H1421   1.082       .  S
C1410      H1422   1.082       .  S
C1411      C2202   1.491       .  S
C1412      C2301   1.493       .  S
C1413      C2029   1.498       .  S
C1414      C2106   1.497       .  S
N1425      C1430   1.351   1_554  A
N1425      C1429   1.349       .  A
N1425      H1457   1.039       .  S
N1426      C1433   1.349   1_565  A
N1426      C1434   1.349       .  A
N1427      C1432   1.353   1_554  A
N1427      C1431   1.354       .  A
N1427      H1458   1.039       .  S
N1428      C1435   1.351   1_565  A
N1428      C1436   1.349       .  A
C1429      C1437   1.387       .  A
C1429      C1445   1.410       .  A
C1430      C1446   1.411       .  A
C1430      C1438   1.387   1_556  A
C1431      C1439   1.387       .  A
C1431      C1448   1.417       .  A
C1432      C1447   1.416       .  A
C1432      C1440   1.387   1_556  A
C1433      C1445   1.410       .  A
C1433      C1441   1.386   1_545  A
C1434      C1448   1.410       .  A
C1434      C1442   1.386       .  A
C1435      C1443   1.385   1_545  A
C1435      C1446   1.411       .  A
C1436      C1444   1.387       .  A
C1436      C1447   1.411       .  A
C1437      C1438   1.376       .  A
C1437      H1449   1.082       .  S
C1438      H1450   1.082   1_554  S
C1439      C1440   1.378       .  A
C1439      H1451   1.082       .  S
C1440      H1452   1.082   1_554  S
C1441      C1442   1.373       .  A
C1441      H1453   1.082   1_565  S
C1442      H1454   1.082       .  S
C1443      C1444   1.374       .  A
C1443      H1455   1.082   1_565  S
C1444      H1456   1.082       .  S
C1445      C1626   1.479       .  S
C1446      C2186   1.487       .  S
C1447      C2125   1.485       .  S
C1448      C1898   1.489       .  S
N1459      C1464   1.354       .  A
N1459      C1463   1.354   1_554  A
N1459      H1491   1.038       .  S
N1460      C1467   1.352       .  A
N1460      C1468   1.352   1_455  A
N1461      C1466   1.353       .  A
N1461      C1465   1.352   1_554  A
N1461      H1492   1.039       .  S
N1462      C1469   1.352       .  A
N1462      C1470   1.353   1_455  A
C1463      C1471   1.387   1_556  A
C1463      C1479   1.417       .  A
C1464      C1480   1.418       .  A
C1464      C1472   1.387       .  A
C1465      C1473   1.387   1_556  A
C1465      C1482   1.414       .  A
C1466      C1481   1.414       .  A
C1466      C1474   1.387       .  A
C1467      C1479   1.414       .  A
C1467      C1475   1.386       .  A
C1468      C1482   1.414       .  A
C1468      C1476   1.386   1_655  A
C1469      C1477   1.387       .  A
C1469      C1480   1.417       .  A
C1470      C1478   1.385   1_655  A
C1470      C1481   1.414       .  A
C1471      C1472   1.377       .  A
C1471      H1483   1.082   1_554  S
C1472      H1484   1.082       .  S
C1473      C1474   1.375       .  A
C1473      H1485   1.082   1_554  S
C1474      H1486   1.082       .  S
C1475      C1476   1.374       .  A
C1475      H1487   1.082       .  S
C1476      H1488   1.082   1_455  S
C1477      C1478   1.373       .  A
C1477      H1489   1.082       .  S
C1478      H1490   1.082   1_455  S
C1479      C2221   1.492       .  S
C1480      C1645   1.494       .  S
C1481      C1741   1.492       .  S
C1482      C2285   1.488       .  S
N1493      C1498   1.352       .  A
N1493      C1497   1.353   1_554  A
N1493      H1525   1.038       .  S
N1494      C1501   1.350       .  A
N1494      C1502   1.349   1_545  A
N1495      C1500   1.353       .  A
N1495      C1499   1.353   1_554  A
N1495      H1526   1.039       .  S
N1496      C1503   1.351       .  A
N1496      C1504   1.353   1_545  A
C1497      C1505   1.386       .  A
C1497      C1513   1.414       .  A
C1498      C1514   1.415       .  A
C1498      C1506   1.388       .  A
C1499      C1507   1.387   1_556  A
C1499      C1516   1.414       .  A
C1500      C1515   1.414       .  A
C1500      C1508   1.387       .  A
C1501      C1513   1.411       .  A
C1501      C1509   1.387       .  A
C1502      C1516   1.411       .  A
C1502      C1510   1.386       .  A
C1503      C1511   1.387       .  A
C1503      C1514   1.415       .  A
C1504      C1512   1.385       .  A
C1504      C1515   1.413       .  A
C1505      C1506   1.377   1_556  A
C1505      H1517   1.082       .  S
C1506      H1518   1.082       .  S
C1507      C1508   1.375       .  A
C1507      H1519   1.082   1_554  S
C1508      H1520   1.082       .  S
C1509      C1510   1.372   1_545  A
C1509      H1521   1.082       .  S
C1510      H1522   1.082       .  S
C1511      C1512   1.375   1_545  A
C1511      H1523   1.082       .  S
C1512      H1524   1.082       .  S
C1513      C2317   1.485       .  S
C1514      C1709   1.489       .  S
C1515      C1834   1.492       .  S
C1516      C2013   1.484       .  S
N1527      C1532   1.351       .  A
N1527      C1531   1.354   1_554  A
N1527      H1559   1.039       .  S
N1528      C1535   1.352   1_455  A
N1528      C1536   1.350       .  A
N1529      C1534   1.356       .  A
N1529      C1533   1.353   1_554  A
N1529      H1560   1.039       .  S
N1530      C1537   1.350   1_455  A
N1530      C1538   1.352       .  A
C1531      C1539   1.387   1_556  A
C1531      C1547   1.415       .  A
C1532      C1548   1.413       .  A
C1532      C1540   1.387       .  A
C1533      C1541   1.388       .  A
C1533      C1550   1.417       .  A
C1534      C1549   1.417       .  A
C1534      C1542   1.386       .  A
C1535      C1547   1.412       .  A
C1535      C1543   1.385       .  A
C1536      C1550   1.413       .  A
C1536      C1544   1.387       .  A
C1537      C1545   1.387       .  A
C1537      C1548   1.411       .  A
C1538      C1546   1.386       .  A
C1538      C1549   1.412       .  A
C1539      C1540   1.375       .  A
C1539      H1551   1.082   1_554  S
C1540      H1552   1.082       .  S
C1541      C1542   1.376   1_556  A
C1541      H1553   1.082       .  S
C1542      H1554   1.082       .  S
C1543      C1544   1.374   1_655  A
C1543      H1555   1.082       .  S
C1544      H1556   1.082       .  S
C1545      C1546   1.372   1_655  A
C1545      H1557   1.082       .  S
C1546      H1558   1.082       .  S
C1547      C1997   1.492       .  S
C1548      C1802   1.484       .  S
C1549      C1933   1.495       .  S
C1550      C2093   1.486       .  S
C1561      C1562   1.402       .  A
C1561      C1566   1.405       .  A
C1561      H1568   1.084       .  S
C1562      C1563   1.412       .  A
C1563      C1564   1.403       .  A
C1563      C1570   1.507       .  S
C1564      C1565   1.402       .  A
C1564      H1569   1.084       .  S
C1565      C1566   1.414       .  A
C1566      C1567   1.507       .  S
C1567      H1571   1.110       .  S
C1567      H1572   1.108       .  S
C1567      H1573   1.110       .  S
C1570      H1574   1.111       .  S
C1570      H1575   1.109       .  S
C1570      H1576   1.111       .  S
C1577      C1578   1.405       .  A
C1577      C1582   1.404       .  A
C1577      H1584   1.084       .  S
C1578      C1579   1.416       .  A
C1579      C1580   1.403       .  A
C1579      C1586   1.507       .  S
C1580      C1581   1.402       .  A
C1580      H1585   1.084       .  S
C1581      C1582   1.410       .  A
C1582      C1583   1.506       .  S
C1583      H1587   1.111       .  S
C1583      H1588   1.110       .  S
C1583      H1589   1.109       .  S
C1586      H1590   1.108       .  S
C1586      H1591   1.110       .  S
C1586      H1592   1.111       .  S
C1593      C1594   1.402       .  A
C1593      C1598   1.400       .  A
C1593      H1600   1.085       .  S
C1594      C1595   1.414       .  A
C1595      C1596   1.402       .  A
C1595      C1602   1.507       .  S
C1596      C1597   1.402       .  A
C1596      H1601   1.084       .  S
C1597      C1598   1.414       .  A
C1598      C1599   1.508       .  S
C1599      H1603   1.111       .  S
C1599      H1604   1.107       .  S
C1599      H1605   1.110       .  S
C1602      H1606   1.110       .  S
C1602      H1607   1.107       .  S
C1602      H1608   1.111       .  S
C1609      C1610   1.403       .  A
C1609      C1614   1.403       .  A
C1609      H1616   1.084       .  S
C1610      C1611   1.414       .  A
C1611      C1612   1.400       .  A
C1611      C1618   1.508       .  S
C1612      C1613   1.402       .  A
C1612      H1617   1.085       .  S
C1613      C1614   1.411       .  A
C1614      C1615   1.506       .  S
C1615      H1619   1.111       .  S
C1615      H1620   1.110       .  S
C1615      H1621   1.109       .  S
C1618      H1622   1.107       .  S
C1618      H1623   1.110       .  S
C1618      H1624   1.110       .  S
C1625      C1626   1.400       .  A
C1625      C1630   1.402       .  A
C1625      H1632   1.084       .  S
C1626      C1627   1.410       .  A
C1627      C1628   1.399       .  A
C1627      C1634   1.507       .  S
C1628      C1629   1.403       .  A
C1628      H1633   1.084       .  S
C1629      C1630   1.416       .  A
C1630      C1631   1.507       .  S
C1631      H1635   1.111       .  S
C1631      H1636   1.110       .  S
C1631      H1637   1.107       .  S
C1634      H1638   1.110       .  S
C1634      H1639   1.110       .  S
C1634      H1640   1.111       .  S
C1641      C1642   1.402       .  A
C1641      C1646   1.406       .  A
C1641      H1648   1.084       .  S
C1642      C1643   1.413       .  A
C1643      C1644   1.404       .  A
C1643      C1650   1.507       .  S
C1644      C1645   1.403       .  A
C1644      H1649   1.084       .  S
C1645      C1646   1.417       .  A
C1646      C1647   1.507       .  S
C1647      H1651   1.111       .  S
C1647      H1652   1.110       .  S
C1647      H1653   1.108       .  S
C1650      H1654   1.110       .  S
C1650      H1655   1.109       .  S
C1650      H1656   1.111       .  S
C1657      C1658   1.403       .  A
C1657      C1662   1.402       .  A
C1657      H1664   1.084       .  S
C1658      C1659   1.415       .  A
C1659      C1660   1.406       .  A
C1659      C1666   1.506       .  S
C1660      C1661   1.402       .  A
C1660      H1665   1.084       .  S
C1661      C1662   1.411       .  A
C1662      C1663   1.506       .  S
C1663      H1667   1.111       .  S
C1663      H1668   1.110       .  S
C1663      H1669   1.110       .  S
C1666      H1670   1.108       .  S
C1666      H1671   1.111       .  S
C1666      H1672   1.111       .  S
C1673      C1674   1.402       .  A
C1673      C1678   1.403       .  A
C1673      H1680   1.085       .  S
C1674      C1675   1.411       .  A
C1675      C1676   1.405       .  A
C1675      C1682   1.506       .  S
C1676      C1677   1.405       .  A
C1676      H1681   1.084       .  S
C1677      C1678   1.416       .  A
C1678      C1679   1.508       .  S
C1679      H1683   1.110       .  S
C1679      H1684   1.107       .  S
C1679      H1685   1.110       .  S
C1682      H1686   1.109       .  S
C1682      H1687   1.110       .  S
C1682      H1688   1.111       .  S
C1689      C1690   1.402       .  A
C1689      C1694   1.404       .  A
C1689      H1696   1.084       .  S
C1690      C1691   1.412       .  A
C1691      C1692   1.406       .  A
C1691      C1698   1.506       .  S
C1692      C1693   1.403       .  A
C1692      H1697   1.084       .  S
C1693      C1694   1.412       .  A
C1694      C1695   1.507       .  S
C1695      H1699   1.111       .  S
C1695      H1700   1.111       .  S
C1695      H1701   1.109       .  S
C1698      H1702   1.110       .  S
C1698      H1703   1.110       .  S
C1698      H1704   1.111       .  S
C1705      C1706   1.403       .  A
C1705      C1710   1.405       .  A
C1705      H1712   1.084       .  S
C1706      C1707   1.417       .  A
C1707      C1708   1.403       .  A
C1707      C1714   1.507       .  S
C1708      C1709   1.401       .  A
C1708      H1713   1.084       .  S
C1709      C1710   1.412       .  A
C1710      C1711   1.507       .  S
C1711      H1715   1.111       .  S
C1711      H1716   1.109       .  S
C1711      H1717   1.110       .  S
C1714      H1718   1.110       .  S
C1714      H1719   1.108       .  S
C1714      H1720   1.111       .  S
C1721      C1722   1.402       .  A
C1721      C1726   1.404       .  A
C1721      H1728   1.084       .  S
C1722      C1723   1.411       .  A
C1723      C1724   1.402       .  A
C1723      C1730   1.507       .  S
C1724      C1725   1.403       .  A
C1724      H1729   1.084       .  S
C1725      C1726   1.414       .  A
C1726      C1727   1.506       .  S
C1727      H1731   1.111       .  S
C1727      H1732   1.109       .  S
C1727      H1733   1.110       .  S
C1730      H1734   1.111       .  S
C1730      H1735   1.109       .  S
C1730      H1736   1.111       .  S
C1737      C1738   1.402       .  A
C1737      C1742   1.404       .  A
C1737      H1744   1.085       .  S
C1738      C1739   1.411       .  A
C1739      C1740   1.404       .  A
C1739      C1746   1.506       .  S
C1740      C1741   1.404       .  A
C1740      H1745   1.084       .  S
C1741      C1742   1.417       .  A
C1742      C1743   1.508       .  S
C1743      H1747   1.110       .  S
C1743      H1748   1.110       .  S
C1743      H1749   1.107       .  S
C1746      H1750   1.109       .  S
C1746      H1751   1.111       .  S
C1746      H1752   1.111       .  S
C1753      C1754   1.402       .  A
C1753      C1758   1.402       .  A
C1753      H1760   1.085       .  S
C1754      C1755   1.414       .  A
C1755      C1756   1.404       .  A
C1755      C1762   1.507       .  S
C1756      C1757   1.401       .  A
C1756      H1761   1.084       .  S
C1757      C1758   1.415       .  A
C1758      C1759   1.508       .  S
C1759      H1763   1.110       .  S
C1759      H1764   1.110       .  S
C1759      H1765   1.108       .  S
C1762      H1766   1.108       .  S
C1762      H1767   1.110       .  S
C1762      H1768   1.111       .  S
C1769      C1770   1.403       .  A
C1769      C1774   1.404       .  A
C1769      H1776   1.084       .  S
C1770      C1771   1.416       .  A
C1771      C1772   1.402       .  A
C1771      C1778   1.508       .  S
C1772      C1773   1.401       .  A
C1772      H1777   1.084       .  S
C1773      C1774   1.413       .  A
C1774      C1775   1.507       .  S
C1775      H1779   1.111       .  S
C1775      H1780   1.109       .  S
C1775      H1781   1.110       .  S
C1778      H1782   1.110       .  S
C1778      H1783   1.108       .  S
C1778      H1784   1.111       .  S
C1785      C1786   1.402       .  A
C1785      C1790   1.406       .  A
C1785      H1792   1.084       .  S
C1786      C1787   1.414       .  A
C1787      C1788   1.404       .  A
C1787      C1794   1.507       .  S
C1788      C1789   1.405       .  A
C1788      H1793   1.084       .  S
C1789      C1790   1.417       .  A
C1790      C1791   1.507       .  S
C1791      H1795   1.111       .  S
C1791      H1796   1.110       .  S
C1791      H1797   1.107       .  S
C1794      H1798   1.110       .  S
C1794      H1799   1.108       .  S
C1794      H1800   1.110       .  S
C1801      C1802   1.402       .  A
C1801      C1806   1.402       .  A
C1801      H1808   1.084       .  S
C1802      C1803   1.411       .  A
C1803      C1804   1.401       .  A
C1803      C1810   1.507       .  S
C1804      C1805   1.400       .  A
C1804      H1809   1.084       .  S
C1805      C1806   1.412       .  A
C1806      C1807   1.507       .  S
C1807      H1811   1.111       .  S
C1807      H1812   1.110       .  S
C1807      H1813   1.109       .  S
C1810      H1814   1.109       .  S
C1810      H1815   1.110       .  S
C1810      H1816   1.111       .  S
C1817      C1818   1.401       .  A
C1817      C1822   1.401       .  A
C1817      H1824   1.085       .  S
C1818      C1819   1.414       .  A
C1819      C1820   1.403       .  A
C1819      C1826   1.507       .  S
C1820      C1821   1.402       .  A
C1820      H1825   1.084       .  S
C1821      C1822   1.414       .  A
C1822      C1823   1.508       .  S
C1823      H1827   1.110       .  S
C1823      H1828   1.108       .  S
C1823      H1829   1.110       .  S
C1826      H1830   1.111       .  S
C1826      H1831   1.108       .  S
C1826      H1832   1.111       .  S
C1833      C1834   1.403       .  A
C1833      C1838   1.407       .  A
C1833      H1840   1.084       .  S
C1834      C1835   1.413       .  A
C1835      C1836   1.406       .  A
C1835      C1842   1.506       .  S
C1836      C1837   1.403       .  A
C1836      H1841   1.084       .  S
C1837      C1838   1.415       .  A
C1838      C1839   1.506       .  S
C1839      H1843   1.111       .  S
C1839      H1844   1.109       .  S
C1839      H1845   1.111       .  S
C1842      H1846   1.110       .  S
C1842      H1847   1.110       .  S
C1842      H1848   1.111       .  S
C1849      C1850   1.404       .  A
C1849      C1854   1.405       .  A
C1849      H1856   1.084       .  S
C1850      C1851   1.414       .  A
C1851      C1852   1.407       .  A
C1851      C1858   1.506       .  S
C1852      C1853   1.406       .  A
C1852      H1857   1.084       .  S
C1853      C1854   1.415       .  A
C1854      C1855   1.507       .  S
C1855      H1859   1.110       .  S
C1855      H1860   1.107       .  S
C1855      H1861   1.110       .  S
C1858      H1862   1.110       .  S
C1858      H1863   1.109       .  S
C1858      H1864   1.111       .  S
C1865      C1866   1.402       .  A
C1865      C1870   1.400       .  A
C1865      H1872   1.085       .  S
C1866      C1867   1.414       .  A
C1867      C1868   1.404       .  A
C1867      C1874   1.507       .  S
C1868      C1869   1.403       .  A
C1868      H1873   1.084       .  S
C1869      C1870   1.415       .  A
C1870      C1871   1.509       .  S
C1871      H1875   1.110       .  S
C1871      H1876   1.107       .  S
C1871      H1877   1.110       .  S
C1874      H1878   1.110       .  S
C1874      H1879   1.108       .  S
C1874      H1880   1.111       .  S
C1881      C1882   1.403       .  A
C1881      C1886   1.403       .  A
C1881      H1888   1.084       .  S
C1882      C1883   1.414       .  A
C1883      C1884   1.404       .  A
C1883      C1890   1.507       .  S
C1884      C1885   1.402       .  A
C1884      H1889   1.084       .  S
C1885      C1886   1.412       .  A
C1886      C1887   1.507       .  S
C1887      H1891   1.111       .  S
C1887      H1892   1.110       .  S
C1887      H1893   1.109       .  S
C1890      H1894   1.108       .  S
C1890      H1895   1.110       .  S
C1890      H1896   1.111       .  S
C1897      C1898   1.404       .  A
C1897      C1902   1.406       .  A
C1897      H1904   1.084       .  S
C1898      C1899   1.411       .  A
C1899      C1900   1.403       .  A
C1899      C1906   1.507       .  S
C1900      C1901   1.404       .  A
C1900      H1905   1.084       .  S
C1901      C1902   1.414       .  A
C1902      C1903   1.506       .  S
C1903      H1907   1.111       .  S
C1903      H1908   1.109       .  S
C1903      H1909   1.110       .  S
C1906      H1910   1.111       .  S
C1906      H1911   1.109       .  S
C1906      H1912   1.111       .  S
C1913      C1914   1.403       .  A
C1913      C1918   1.401       .  A
C1913      H1920   1.085       .  S
C1914      C1915   1.415       .  A
C1915      C1916   1.404       .  A
C1915      C1922   1.507       .  S
C1916      C1917   1.402       .  A
C1916      H1921   1.084       .  S
C1917      C1918   1.414       .  A
C1918      C1919   1.508       .  S
C1919      H1923   1.110       .  S
C1919      H1924   1.110       .  S
C1919      H1925   1.108       .  S
C1922      H1926   1.108       .  S
C1922      H1927   1.110       .  S
C1922      H1928   1.111       .  S
C1929      C1930   1.405       .  A
C1929      C1934   1.407       .  A
C1929      H1936   1.084       .  S
C1930      C1931   1.415       .  A
C1931      C1932   1.405       .  A
C1931      C1938   1.507       .  S
C1932      C1933   1.404       .  A
C1932      H1937   1.084       .  S
C1933      C1934   1.415       .  A
C1934      C1935   1.507       .  S
C1935      H1939   1.110       .  S
C1935      H1940   1.108       .  S
C1935      H1941   1.110       .  S
C1938      H1942   1.108       .  S
C1938      H1943   1.110       .  S
C1938      H1944   1.111       .  S
C1945      C1946   1.404       .  A
C1945      C1950   1.401       .  A
C1945      H1952   1.084       .  S
C1946      C1947   1.415       .  A
C1947      C1948   1.404       .  A
C1947      C1954   1.506       .  S
C1948      C1949   1.401       .  A
C1948      H1953   1.084       .  S
C1949      C1950   1.410       .  A
C1950      C1951   1.507       .  S
C1951      H1955   1.111       .  S
C1951      H1956   1.110       .  S
C1951      H1957   1.110       .  S
C1954      H1958   1.110       .  S
C1954      H1959   1.108       .  S
C1954      H1960   1.111       .  S
C1961      C1962   1.403       .  A
C1961      C1966   1.408       .  A
C1961      H1968   1.084       .  S
C1962      C1963   1.411       .  A
C1963      C1964   1.406       .  A
C1963      C1970   1.506       .  S
C1964      C1965   1.405       .  A
C1964      H1969   1.084       .  S
C1965      C1966   1.415       .  A
C1966      C1967   1.506       .  S
C1967      H1971   1.111       .  S
C1967      H1972   1.110       .  S
C1967      H1973   1.109       .  S
C1970      H1974   1.110       .  S
C1970      H1975   1.110       .  S
C1970      H1976   1.111       .  S
C1977      C1978   1.404       .  A
C1977      C1982   1.405       .  A
C1977      H1984   1.084       .  S
C1978      C1979   1.415       .  A
C1979      C1980   1.405       .  A
C1979      C1986   1.507       .  S
C1980      C1981   1.404       .  A
C1980      H1985   1.084       .  S
C1981      C1982   1.414       .  A
C1982      C1983   1.507       .  S
C1983      H1987   1.111       .  S
C1983      H1988   1.110       .  S
C1983      H1989   1.108       .  S
C1986      H1990   1.108       .  S
C1986      H1991   1.110       .  S
C1986      H1992   1.111       .  S
C1993      C1994   1.404       .  A
C1993      C1998   1.405       .  A
C1993      H2000   1.084       .  S
C1994      C1995   1.415       .  A
C1995      C1996   1.405       .  A
C1995      C2002   1.507       .  S
C1996      C1997   1.403       .  A
C1996      H2001   1.084       .  S
C1997      C1998   1.414       .  A
C1998      C1999   1.507       .  S
C1999      H2003   1.111       .  S
C1999      H2004   1.108       .  S
C1999      H2005   1.110       .  S
C2002      H2006   1.108       .  S
C2002      H2007   1.110       .  S
C2002      H2008   1.111       .  S
C2009      C2010   1.403       .  A
C2009      C2014   1.400       .  A
C2009      H2016   1.085       .  S
C2010      C2011   1.414       .  A
C2011      C2012   1.404       .  A
C2011      C2018   1.507       .  S
C2012      C2013   1.401       .  A
C2012      H2017   1.084       .  S
C2013      C2014   1.413       .  A
C2014      C2015   1.508       .  S
C2015      H2019   1.110       .  S
C2015      H2020   1.108       .  S
C2015      H2021   1.110       .  S
C2018      H2022   1.110       .  S
C2018      H2023   1.108       .  S
C2018      H2024   1.111       .  S
C2025      C2026   1.405       .  A
C2025      C2030   1.404       .  A
C2025      H2032   1.084       .  S
C2026      C2027   1.418       .  A
C2027      C2028   1.409       .  A
C2027      C2034   1.506       .  S
C2028      C2029   1.405       .  A
C2028      H2033   1.084       .  S
C2029      C2030   1.414       .  A
C2030      C2031   1.508       .  S
C2031      H2035   1.111       .  S
C2031      H2036   1.108       .  S
C2031      H2037   1.110       .  S
C2034      H2038   1.110       .  S
C2034      H2039   1.108       .  S
C2034      H2040   1.111       .  S
C2041      C2042   1.402       .  A
C2041      C2046   1.401       .  A
C2041      H2048   1.085       .  S
C2042      C2043   1.411       .  A
C2043      C2044   1.405       .  A
C2043      C2050   1.506       .  S
C2044      C2045   1.405       .  A
C2044      H2049   1.084       .  S
C2045      C2046   1.415       .  A
C2046      C2047   1.508       .  S
C2047      H2051   1.110       .  S
C2047      H2052   1.107       .  S
C2047      H2053   1.110       .  S
C2050      H2054   1.109       .  S
C2050      H2055   1.110       .  S
C2050      H2056   1.111       .  S
C2057      C2058   1.402       .  A
C2057      C2062   1.406       .  A
C2057      H2064   1.084       .  S
C2058      C2059   1.414       .  A
C2059      C2060   1.406       .  A
C2059      C2066   1.506       .  S
C2060      C2061   1.404       .  A
C2060      H2065   1.084       .  S
C2061      C2062   1.415       .  A
C2062      C2063   1.507       .  S
C2063      H2067   1.111       .  S
C2063      H2068   1.110       .  S
C2063      H2069   1.108       .  S
C2066      H2070   1.109       .  S
C2066      H2071   1.110       .  S
C2066      H2072   1.111       .  S
C2073      C2074   1.402       .  A
C2073      C2078   1.407       .  A
C2073      H2080   1.084       .  S
C2074      C2075   1.413       .  A
C2075      C2076   1.404       .  A
C2075      C2082   1.507       .  S
C2076      C2077   1.401       .  A
C2076      H2081   1.084       .  S
C2077      C2078   1.412       .  A
C2078      C2079   1.506       .  S
C2079      H2083   1.111       .  S
C2079      H2084   1.110       .  S
C2079      H2085   1.110       .  S
C2082      H2086   1.110       .  S
C2082      H2087   1.110       .  S
C2082      H2088   1.111       .  S
C2089      C2090   1.403       .  A
C2089      C2094   1.402       .  A
C2089      H2096   1.085       .  S
C2090      C2091   1.413       .  A
C2091      C2092   1.404       .  A
C2091      C2098   1.506       .  S
C2092      C2093   1.402       .  A
C2092      H2097   1.084       .  S
C2093      C2094   1.415       .  A
C2094      C2095   1.508       .  S
C2095      H2099   1.110       .  S
C2095      H2100   1.110       .  S
C2095      H2101   1.108       .  S
C2098      H2102   1.110       .  S
C2098      H2103   1.108       .  S
C2098      H2104   1.111       .  S
C2105      C2106   1.405       .  A
C2105      C2110   1.410       .  A
C2105      H2112   1.084       .  S
C2106      C2107   1.413       .  A
C2107      C2108   1.406       .  A
C2107      C2114   1.507       .  S
C2108      C2109   1.403       .  A
C2108      H2113   1.084       .  S
C2109      C2110   1.415       .  A
C2110      C2111   1.506       .  S
C2111      H2115   1.111       .  S
C2111      H2116   1.109       .  S
C2111      H2117   1.110       .  S
C2114      H2118   1.111       .  S
C2114      H2119   1.109       .  S
C2114      H2120   1.111       .  S
C2121      C2122   1.402       .  A
C2121      C2126   1.402       .  A
C2121      H2128   1.085       .  S
C2122      C2123   1.411       .  A
C2123      C2124   1.404       .  A
C2123      C2130   1.506       .  S
C2124      C2125   1.403       .  A
C2124      H2129   1.084       .  S
C2125      C2126   1.413       .  A
C2126      C2127   1.507       .  S
C2127      H2131   1.111       .  S
C2127      H2132   1.110       .  S
C2127      H2133   1.108       .  S
C2130      H2134   1.110       .  S
C2130      H2135   1.109       .  S
C2130      H2136   1.111       .  S
C2137      C2138   1.403       .  A
C2137      C2142   1.408       .  A
C2137      H2144   1.084       .  S
C2138      C2139   1.413       .  A
C2139      C2140   1.405       .  A
C2139      C2146   1.507       .  S
C2140      C2141   1.403       .  A
C2140      H2145   1.084       .  S
C2141      C2142   1.414       .  A
C2142      C2143   1.506       .  S
C2143      H2147   1.111       .  S
C2143      H2148   1.111       .  S
C2143      H2149   1.109       .  S
C2146      H2150   1.110       .  S
C2146      H2151   1.110       .  S
C2146      H2152   1.111       .  S
C2153      C2154   1.404       .  A
C2153      C2158   1.402       .  A
C2153      H2160   1.084       .  S
C2154      C2155   1.416       .  A
C2155      C2156   1.406       .  A
C2155      C2162   1.507       .  S
C2156      C2157   1.403       .  A
C2156      H2161   1.084       .  S
C2157      C2158   1.414       .  A
C2158      C2159   1.508       .  S
C2159      H2163   1.110       .  S
C2159      H2164   1.111       .  S
C2159      H2165   1.108       .  S
C2162      H2166   1.108       .  S
C2162      H2167   1.110       .  S
C2162      H2168   1.111       .  S
C2169      C2170   1.404       .  A
C2169      C2174   1.405       .  A
C2169      H2176   1.084       .  S
C2170      C2171   1.414       .  A
C2171      C2172   1.406       .  A
C2171      C2178   1.506       .  S
C2172      C2173   1.403       .  A
C2172      H2177   1.084       .  S
C2173      C2174   1.415       .  A
C2174      C2175   1.507       .  S
C2175      H2179   1.111       .  S
C2175      H2180   1.108       .  S
C2175      H2181   1.110       .  S
C2178      H2182   1.109       .  S
C2178      H2183   1.110       .  S
C2178      H2184   1.111       .  S
C2185      C2186   1.403       .  A
C2185      C2190   1.406       .  A
C2185      H2192   1.084       .  S
C2186      C2187   1.412       .  A
C2187      C2188   1.402       .  A
C2187      C2194   1.507       .  S
C2188      C2189   1.401       .  A
C2188      H2193   1.084       .  S
C2189      C2190   1.413       .  A
C2190      C2191   1.506       .  S
C2191      H2195   1.111       .  S
C2191      H2196   1.109       .  S
C2191      H2197   1.110       .  S
C2194      H2198   1.111       .  S
C2194      H2199   1.109       .  S
C2194      H2200   1.111       .  S
C2201      C2202   1.404       .  A
C2201      C2206   1.405       .  A
C2201      H2208   1.084       .  S
C2202      C2203   1.415       .  A
C2203      C2204   1.404       .  A
C2203      C2210   1.507       .  S
C2204      C2205   1.403       .  A
C2204      H2209   1.085       .  S
C2205      C2206   1.411       .  A
C2206      C2207   1.506       .  S
C2207      H2211   1.111       .  S
C2207      H2212   1.111       .  S
C2207      H2213   1.110       .  S
C2210      H2214   1.110       .  S
C2210      H2215   1.108       .  S
C2210      H2216   1.111       .  S
C2217      C2218   1.404       .  A
C2217      C2222   1.405       .  A
C2217      H2224   1.084       .  S
C2218      C2219   1.414       .  A
C2219      C2220   1.406       .  A
C2219      C2226   1.506       .  S
C2220      C2221   1.403       .  A
C2220      H2225   1.084       .  S
C2221      C2222   1.412       .  A
C2222      C2223   1.506       .  S
C2223      H2227   1.111       .  S
C2223      H2228   1.110       .  S
C2223      H2229   1.109       .  S
C2226      H2230   1.109       .  S
C2226      H2231   1.110       .  S
C2226      H2232   1.111       .  S
C2233      C2234   1.400       .  A
C2233      C2238   1.402       .  A
C2233      H2240   1.084       .  S
C2234      C2235   1.411       .  A
C2235      C2236   1.400       .  A
C2235      C2242   1.507       .  S
C2236      C2237   1.401       .  A
C2236      H2241   1.084       .  S
C2237      C2238   1.414       .  A
C2238      C2239   1.507       .  S
C2239      H2243   1.110       .  S
C2239      H2244   1.110       .  S
C2239      H2245   1.108       .  S
C2242      H2246   1.110       .  S
C2242      H2247   1.110       .  S
C2242      H2248   1.111       .  S
C2249      C2250   1.402       .  A
C2249      C2254   1.403       .  A
C2249      H2256   1.085       .  S
C2250      C2251   1.410       .  A
C2251      C2252   1.402       .  A
C2251      C2258   1.506       .  S
C2252      C2253   1.402       .  A
C2252      H2257   1.084       .  S
C2253      C2254   1.414       .  A
C2254      C2255   1.507       .  S
C2255      H2259   1.111       .  S
C2255      H2260   1.110       .  S
C2255      H2261   1.108       .  S
C2258      H2262   1.110       .  S
C2258      H2263   1.110       .  S
C2258      H2264   1.111       .  S
C2265      C2266   1.402       .  A
C2265      C2270   1.402       .  A
C2265      H2272   1.085       .  S
C2266      C2267   1.414       .  A
C2267      C2268   1.406       .  A
C2267      C2274   1.506       .  S
C2268      C2269   1.404       .  A
C2268      H2273   1.084       .  S
C2269      C2270   1.417       .  A
C2270      C2271   1.508       .  S
C2271      H2275   1.110       .  S
C2271      H2276   1.110       .  S
C2271      H2277   1.108       .  S
C2274      H2278   1.110       .  S
C2274      H2279   1.109       .  S
C2274      H2280   1.111       .  S
C2281      C2282   1.403       .  A
C2281      C2286   1.401       .  A
C2281      H2288   1.084       .  S
C2282      C2283   1.415       .  A
C2283      C2284   1.405       .  A
C2283      C2290   1.507       .  S
C2284      C2285   1.403       .  A
C2284      H2289   1.084       .  S
C2285      C2286   1.414       .  A
C2286      C2287   1.508       .  S
C2287      H2291   1.110       .  S
C2287      H2292   1.108       .  S
C2287      H2293   1.111       .  S
C2290      H2294   1.110       .  S
C2290      H2295   1.108       .  S
C2290      H2296   1.111       .  S
C2297      C2298   1.402       .  A
C2297      C2302   1.407       .  A
C2297      H2304   1.084       .  S
C2298      C2299   1.412       .  A
C2299      C2300   1.406       .  A
C2299      C2306   1.506       .  S
C2300      C2301   1.403       .  A
C2300      H2305   1.084       .  S
C2301      C2302   1.413       .  A
C2302      C2303   1.506       .  S
C2303      H2307   1.111       .  S
C2303      H2308   1.110       .  S
C2303      H2309   1.110       .  S
C2306      H2310   1.110       .  S
C2306      H2311   1.110       .  S
C2306      H2312   1.111       .  S
C2313      C2314   1.405       .  A
C2313      C2318   1.404       .  A
C2313      H2320   1.084       .  S
C2314      C2315   1.417       .  A
C2315      C2316   1.402       .  A
C2315      C2322   1.508       .  S
C2316      C2317   1.400       .  A
C2316      H2321   1.084       .  S
C2317      C2318   1.410       .  A
C2318      C2319   1.506       .  S
C2319      H2323   1.111       .  S
C2319      H2324   1.110       .  S
C2319      H2325   1.110       .  S
C2322      H2326   1.107       .  S
C2322      H2327   1.110       .  S
C2322      H2328   1.111       .  S
